gem5 Simulator System.  http://gem5.org
gem5 is copyrighted software; use the --copyright option for details.

gem5 compiled Dec  9 2018 21:26:01
gem5 started Dec  9 2018 21:26:33
gem5 executing on tetracosa.cs.ucla.edu, pid 72109
command line: ./build/X86/gem5.debug --debug-flags=ToyLSQUnit --outdir=project/results/dump configs/example/se.py --cmd=cs251a-microbench/merge --cpu-type=DerivO3CPU --cpu-clock=2.3GHz --caches --l2cache

Global frequency set at 1000000000000 ticks per second
      0: system.cpu.iew.lsq.thread0: Creating LSQUnit0 object.
**** REAL SIMULATION ****
      0: system.cpu.iew.lsq.thread0: LQ size: 33, #loads occupied: 0
      0: system.cpu.iew.lsq.thread0: SQ size: 33, #stores occupied: 0
      0: system.cpu.iew.lsq.thread0: LQ size: 33, #loads occupied: 0
      0: system.cpu.iew.lsq.thread0: SQ size: 33, #stores occupied: 0
      0: system.cpu.iew.lsq.thread0: LQ size: 33, #loads occupied: 0
      0: system.cpu.iew.lsq.thread0: SQ size: 33, #stores occupied: 0
    435: system.cpu.iew.lsq.thread0: Squashing until [sn:0]!(Loads:0 Stores:0)
    435: system.cpu.iew.lsq.thread0: LQ size: 33, #loads occupied: 0
    435: system.cpu.iew.lsq.thread0: SQ size: 33, #stores occupied: 0
  90480: system.cpu.iew.lsq.thread0: Inserting store PC (0x7ffff7ddc123=>0x7ffff7ddc128).(2=>3), idx:0 [sn:4]
  90915: system.cpu.iew.lsq.thread0: Inserting load PC (0x7ffff7ddc12b=>0x7ffff7ddc131).(1=>2), idx:0 [sn:9]
  90915: system.cpu.iew.lsq.thread0: Inserting load PC (0x7ffff7ddc131=>0x7ffff7ddc132).(0=>1), idx:1 [sn:10]
  90915: system.cpu.iew.lsq.thread0: Inserting store PC (0x7ffff7ddc138=>0x7ffff7ddc139).(0=>1), idx:1 [sn:15]
  90915: system.cpu.iew.lsq.thread0: LQ size: 33, #loads occupied: 2
  90915: system.cpu.iew.lsq.thread0: SQ size: 33, #stores occupied: 2
  91350: system.cpu.iew.lsq.thread0: Executing store PC (0x7ffff7ddc123=>0x7ffff7ddc128).(2=>3) [sn:4]
  91350: system.cpu.iew.lsq.thread0: Doing write to store idx 0, addr 0x30e48 | storeHead:0 [sn:4]
  91350: system.cpu.iew.lsq.thread0: Executing load PC (0x7ffff7ddc12b=>0x7ffff7ddc131).(1=>2), [sn:9]
  91350: system.cpu.iew.lsq.thread0: ToyLSQUnit read happening
  91350: system.cpu.iew.lsq.thread0: A
  91350: system.cpu.iew.lsq.thread0: B
  91350: system.cpu.iew.lsq.thread0: C
  91350: system.cpu.iew.lsq.thread0: Read called, load idx: 0, store idx: 1, storeHead: 0 addr: 0x2dd88
  91350: system.cpu.iew.lsq.thread0: Doing memory access for inst [sn:9] PC (0x7ffff7ddc12b=>0x7ffff7ddc131).(1=>2)
  91350: system.cpu.iew.lsq.thread0:    copying memData into memDataCopy, size: 9 [sn:4]
  91350: system.cpu.iew.lsq.thread0: Executing load PC (0x7ffff7ddc131=>0x7ffff7ddc132).(0=>1), [sn:10]
  91350: system.cpu.iew.lsq.thread0: ToyLSQUnit read happening
  91350: system.cpu.iew.lsq.thread0: A
  91350: system.cpu.iew.lsq.thread0: B
  91350: system.cpu.iew.lsq.thread0: C
  91350: system.cpu.iew.lsq.thread0: Read called, load idx: 1, store idx: 1, storeHead: 0 addr: 0x30e48
  91350: system.cpu.iew.lsq.thread0: Forwarding from store idx 0 to load to addr 0x7fffffffee48
  91350: system.cpu.iew.lsq.thread0:    copying memData into memDataCopy, size: 10 [sn:8]
  91350: system.cpu.iew.lsq.thread0: LQ size: 33, #loads occupied: 2
  91350: system.cpu.iew.lsq.thread0: SQ size: 33, #stores occupied: 2
  92220: system.cpu.iew.lsq.thread0: Squashing until [sn:6]!(Loads:2 Stores:2)
  92220: system.cpu.iew.lsq.thread0: Load Instruction PC (0x7ffff7ddc131=>0x7ffff7ddc132).(0=>1) squashed, [sn:10]
  92220: system.cpu.iew.lsq.thread0: Load Instruction PC (0x7ffff7ddc12b=>0x7ffff7ddc131).(1=>2) squashed, [sn:9]
  92220: system.cpu.iew.lsq.thread0: Store Instruction PC (0x7ffff7ddc138=>0x7ffff7ddc139).(0=>1) squashed, idx:1 [sn:15]
  92220: system.cpu.iew.lsq.thread0: LQ size: 33, #loads occupied: 0
  92220: system.cpu.iew.lsq.thread0: SQ size: 33, #stores occupied: 1
  93090: system.cpu.iew.lsq.thread0: Marking store as able to write back, PC (0x7ffff7ddc123=>0x7ffff7ddc128).(2=>3) [sn:4]
  93525: system.cpu.iew.lsq.thread0: D-Cache: Writing back store idx:0 PC:(0x7ffff7ddc123=>0x7ffff7ddc128).(2=>3) to Addr:0x30e48, data:0x28 [sn:4]
  93525: system.cpu.iew.lsq.thread0: LQ size: 33, #loads occupied: 0
  93525: system.cpu.iew.lsq.thread0: SQ size: 33, #stores occupied: 1
 207060: system.cpu.iew.lsq.thread0: Completing store [sn:4], idx:0, store head idx:1
 207060: system.cpu.iew.lsq.thread0: LQ size: 33, #loads occupied: 0
 207060: system.cpu.iew.lsq.thread0: SQ size: 33, #stores occupied: 0
 250995: system.cpu.iew.lsq.thread0: Inserting store PC (0x7ffff7ddc830=>0x7ffff7ddc831).(0=>1), idx:1 [sn:19]
 250995: system.cpu.iew.lsq.thread0: Inserting store PC (0x7ffff7ddc834=>0x7ffff7ddc836).(0=>1), idx:2 [sn:22]
 250995: system.cpu.iew.lsq.thread0: Inserting store PC (0x7ffff7ddc836=>0x7ffff7ddc838).(0=>1), idx:3 [sn:24]
 250995: system.cpu.iew.lsq.thread0: Inserting store PC (0x7ffff7ddc838=>0x7ffff7ddc83a).(0=>1), idx:4 [sn:26]
 251430: system.cpu.iew.lsq.thread0: Inserting store PC (0x7ffff7ddc83a=>0x7ffff7ddc83c).(0=>1), idx:5 [sn:28]
 251430: system.cpu.iew.lsq.thread0: Inserting store PC (0x7ffff7ddc83f=>0x7ffff7ddc840).(0=>1), idx:6 [sn:31]
 251430: system.cpu.iew.lsq.thread0: Executing store PC (0x7ffff7ddc830=>0x7ffff7ddc831).(0=>1) [sn:19]
 251430: system.cpu.iew.lsq.thread0: Doing write to store idx 1, addr 0x30e40 | storeHead:1 [sn:19]
 251430: system.cpu.iew.lsq.thread0: LQ size: 33, #loads occupied: 0
 251430: system.cpu.iew.lsq.thread0: SQ size: 33, #stores occupied: 6
 251865: system.cpu.iew.lsq.thread0: Executing store PC (0x7ffff7ddc834=>0x7ffff7ddc836).(0=>1) [sn:22]
 251865: system.cpu.iew.lsq.thread0: Doing write to store idx 2, addr 0x30e38 | storeHead:1 [sn:22]
 251865: system.cpu.iew.lsq.thread0: LQ size: 33, #loads occupied: 0
 251865: system.cpu.iew.lsq.thread0: SQ size: 33, #stores occupied: 6
 252300: system.cpu.iew.lsq.thread0: Executing store PC (0x7ffff7ddc836=>0x7ffff7ddc838).(0=>1) [sn:24]
 252300: system.cpu.iew.lsq.thread0: Doing write to store idx 3, addr 0x30e30 | storeHead:1 [sn:24]
 252300: system.cpu.iew.lsq.thread0: LQ size: 33, #loads occupied: 0
 252300: system.cpu.iew.lsq.thread0: SQ size: 33, #stores occupied: 6
 252735: system.cpu.iew.lsq.thread0: Executing store PC (0x7ffff7ddc838=>0x7ffff7ddc83a).(0=>1) [sn:26]
 252735: system.cpu.iew.lsq.thread0: Doing write to store idx 4, addr 0x30e28 | storeHead:1 [sn:26]
 252735: system.cpu.iew.lsq.thread0: Marking store as able to write back, PC (0x7ffff7ddc830=>0x7ffff7ddc831).(0=>1) [sn:19]
 252735: system.cpu.iew.lsq.thread0: LQ size: 33, #loads occupied: 0
 252735: system.cpu.iew.lsq.thread0: SQ size: 33, #stores occupied: 6
 253170: system.cpu.iew.lsq.thread0: Executing store PC (0x7ffff7ddc83a=>0x7ffff7ddc83c).(0=>1) [sn:28]
 253170: system.cpu.iew.lsq.thread0: Doing write to store idx 5, addr 0x30e20 | storeHead:1 [sn:28]
 253170: system.cpu.iew.lsq.thread0: D-Cache: Writing back store idx:1 PC:(0x7ffff7ddc830=>0x7ffff7ddc831).(0=>1) to Addr:0x30e40, data:0 [sn:19]
 253170: system.cpu.iew.lsq.thread0: Marking store as able to write back, PC (0x7ffff7ddc834=>0x7ffff7ddc836).(0=>1) [sn:22]
 253170: system.cpu.iew.lsq.thread0: LQ size: 33, #loads occupied: 0
 253170: system.cpu.iew.lsq.thread0: SQ size: 33, #stores occupied: 6
 253605: system.cpu.iew.lsq.thread0: Executing store PC (0x7ffff7ddc83f=>0x7ffff7ddc840).(0=>1) [sn:31]
 253605: system.cpu.iew.lsq.thread0: Doing write to store idx 6, addr 0x30e18 | storeHead:1 [sn:31]
 253605: system.cpu.iew.lsq.thread0: Marking store as able to write back, PC (0x7ffff7ddc836=>0x7ffff7ddc838).(0=>1) [sn:24]
 253605: system.cpu.iew.lsq.thread0: LQ size: 33, #loads occupied: 0
 253605: system.cpu.iew.lsq.thread0: SQ size: 33, #stores occupied: 6
 254040: system.cpu.iew.lsq.thread0: Completing store [sn:19], idx:1, store head idx:2
 254040: system.cpu.iew.lsq.thread0: D-Cache: Writing back store idx:2 PC:(0x7ffff7ddc834=>0x7ffff7ddc836).(0=>1) to Addr:0x30e38, data:0 [sn:22]
 254040: system.cpu.iew.lsq.thread0: Marking store as able to write back, PC (0x7ffff7ddc838=>0x7ffff7ddc83a).(0=>1) [sn:26]
 254040: system.cpu.iew.lsq.thread0: LQ size: 33, #loads occupied: 0
 254040: system.cpu.iew.lsq.thread0: SQ size: 33, #stores occupied: 5
 254475: system.cpu.iew.lsq.thread0: Marking store as able to write back, PC (0x7ffff7ddc83a=>0x7ffff7ddc83c).(0=>1) [sn:28]
 254475: system.cpu.iew.lsq.thread0: LQ size: 33, #loads occupied: 0
 254475: system.cpu.iew.lsq.thread0: SQ size: 33, #stores occupied: 5
 254910: system.cpu.iew.lsq.thread0: Marking store as able to write back, PC (0x7ffff7ddc83f=>0x7ffff7ddc840).(0=>1) [sn:31]
 254910: system.cpu.iew.lsq.thread0: LQ size: 33, #loads occupied: 0
 254910: system.cpu.iew.lsq.thread0: SQ size: 33, #stores occupied: 5
 255345: system.cpu.iew.lsq.thread0: LQ size: 33, #loads occupied: 0
 255345: system.cpu.iew.lsq.thread0: SQ size: 33, #stores occupied: 5
 327555: system.cpu.iew.lsq.thread0: LQ size: 33, #loads occupied: 0
 327555: system.cpu.iew.lsq.thread0: SQ size: 33, #stores occupied: 5
 327990: system.cpu.iew.lsq.thread0: LQ size: 33, #loads occupied: 0
 327990: system.cpu.iew.lsq.thread0: SQ size: 33, #stores occupied: 5
 329295: system.cpu.iew.lsq.thread0: LQ size: 33, #loads occupied: 0
 329295: system.cpu.iew.lsq.thread0: SQ size: 33, #stores occupied: 5
 329730: system.cpu.iew.lsq.thread0: LQ size: 33, #loads occupied: 0
 329730: system.cpu.iew.lsq.thread0: SQ size: 33, #stores occupied: 5
 333210: system.cpu.iew.lsq.thread0: Completing store [sn:22], idx:2, store head idx:3
 333210: system.cpu.iew.lsq.thread0: D-Cache: Writing back store idx:3 PC:(0x7ffff7ddc836=>0x7ffff7ddc838).(0=>1) to Addr:0x30e30, data:0 [sn:24]
 333210: system.cpu.iew.lsq.thread0: LQ size: 33, #loads occupied: 0
 333210: system.cpu.iew.lsq.thread0: SQ size: 33, #stores occupied: 4
 334080: system.cpu.iew.lsq.thread0: Completing store [sn:24], idx:3, store head idx:4
 334080: system.cpu.iew.lsq.thread0: D-Cache: Writing back store idx:4 PC:(0x7ffff7ddc838=>0x7ffff7ddc83a).(0=>1) to Addr:0x30e28, data:0 [sn:26]
 334080: system.cpu.iew.lsq.thread0: LQ size: 33, #loads occupied: 0
 334080: system.cpu.iew.lsq.thread0: SQ size: 33, #stores occupied: 3
 334950: system.cpu.iew.lsq.thread0: Completing store [sn:26], idx:4, store head idx:5
 334950: system.cpu.iew.lsq.thread0: D-Cache: Writing back store idx:5 PC:(0x7ffff7ddc83a=>0x7ffff7ddc83c).(0=>1) to Addr:0x30e20, data:0 [sn:28]
 334950: system.cpu.iew.lsq.thread0: LQ size: 33, #loads occupied: 0
 334950: system.cpu.iew.lsq.thread0: SQ size: 33, #stores occupied: 2
 335820: system.cpu.iew.lsq.thread0: Completing store [sn:28], idx:5, store head idx:6
 335820: system.cpu.iew.lsq.thread0: D-Cache: Writing back store idx:6 PC:(0x7ffff7ddc83f=>0x7ffff7ddc840).(0=>1) to Addr:0x30e18, data:0 [sn:31]
 335820: system.cpu.iew.lsq.thread0: LQ size: 33, #loads occupied: 0
 335820: system.cpu.iew.lsq.thread0: SQ size: 33, #stores occupied: 1
 336690: system.cpu.iew.lsq.thread0: Completing store [sn:31], idx:6, store head idx:7
 336690: system.cpu.iew.lsq.thread0: LQ size: 33, #loads occupied: 0
 336690: system.cpu.iew.lsq.thread0: SQ size: 33, #stores occupied: 0
 337995: system.cpu.iew.lsq.thread0: Inserting load PC (0x7ffff7ddc84f=>0x7ffff7ddc856).(1=>2), idx:0 [sn:42]
 338430: system.cpu.iew.lsq.thread0: Inserting store PC (0x7ffff7ddc856=>0x7ffff7ddc85d).(1=>2), idx:7 [sn:44]
 338430: system.cpu.iew.lsq.thread0: LQ size: 33, #loads occupied: 1
 338430: system.cpu.iew.lsq.thread0: SQ size: 33, #stores occupied: 1
 338865: system.cpu.iew.lsq.thread0: Executing load PC (0x7ffff7ddc84f=>0x7ffff7ddc856).(1=>2), [sn:42]
 338865: system.cpu.iew.lsq.thread0: ToyLSQUnit read happening
 338865: system.cpu.iew.lsq.thread0: A
 338865: system.cpu.iew.lsq.thread0: B
 338865: system.cpu.iew.lsq.thread0: C
 338865: system.cpu.iew.lsq.thread0: Read called, load idx: 0, store idx: -1, storeHead: 7 addr: 0x2de00
 338865: system.cpu.iew.lsq.thread0: Doing memory access for inst [sn:42] PC (0x7ffff7ddc84f=>0x7ffff7ddc856).(1=>2)
 338865: system.cpu.iew.lsq.thread0:    copying memData into memDataCopy, size: 42 [sn:8]
 338865: system.cpu.iew.lsq.thread0: LQ size: 33, #loads occupied: 1
 338865: system.cpu.iew.lsq.thread0: SQ size: 33, #stores occupied: 1
 339300: system.cpu.iew.lsq.thread0: Inserting load PC (0x7ffff7ddc867=>0x7ffff7ddc86e).(1=>2), idx:1 [sn:49]
 339300: system.cpu.iew.lsq.thread0: Inserting store PC (0x7ffff7ddc871=>0x7ffff7ddc878).(1=>2), idx:8 [sn:53]
 339300: system.cpu.iew.lsq.thread0: Inserting store PC (0x7ffff7ddc878=>0x7ffff7ddc87f).(1=>2), idx:9 [sn:55]
 339300: system.cpu.iew.lsq.thread0: LQ size: 33, #loads occupied: 2
 339300: system.cpu.iew.lsq.thread0: SQ size: 33, #stores occupied: 3
 339735: system.cpu.iew.lsq.thread0: Executing load PC (0x7ffff7ddc867=>0x7ffff7ddc86e).(1=>2), [sn:49]
 339735: system.cpu.iew.lsq.thread0: ToyLSQUnit read happening
 339735: system.cpu.iew.lsq.thread0: A
 339735: system.cpu.iew.lsq.thread0: B
 339735: system.cpu.iew.lsq.thread0: C
 339735: system.cpu.iew.lsq.thread0: Read called, load idx: 1, store idx: 8, storeHead: 7 addr: 0x2df90
 339735: system.cpu.iew.lsq.thread0: Doing memory access for inst [sn:49] PC (0x7ffff7ddc867=>0x7ffff7ddc86e).(1=>2)
 339735: system.cpu.iew.lsq.thread0:    copying memData into memDataCopy, size: 49 [sn:8]
 339735: system.cpu.iew.lsq.thread0: LQ size: 33, #loads occupied: 2
 339735: system.cpu.iew.lsq.thread0: SQ size: 33, #stores occupied: 3
 340170: system.cpu.iew.lsq.thread0: Executing store PC (0x7ffff7ddc856=>0x7ffff7ddc85d).(1=>2) [sn:44]
 340170: system.cpu.iew.lsq.thread0: Doing write to store idx 7, addr 0x2dbd8 | storeHead:7 [sn:44]
 340170: system.cpu.iew.lsq.thread0: LQ size: 33, #loads occupied: 2
 340170: system.cpu.iew.lsq.thread0: SQ size: 33, #stores occupied: 3
 340605: system.cpu.iew.lsq.thread0: Executing store PC (0x7ffff7ddc871=>0x7ffff7ddc878).(1=>2) [sn:53]
 340605: system.cpu.iew.lsq.thread0: Doing write to store idx 8, addr 0x2e9a8 | storeHead:7 [sn:53]
 340605: system.cpu.iew.lsq.thread0: LQ size: 33, #loads occupied: 2
 340605: system.cpu.iew.lsq.thread0: SQ size: 33, #stores occupied: 3
 341040: system.cpu.iew.lsq.thread0: LQ size: 33, #loads occupied: 2
 341040: system.cpu.iew.lsq.thread0: SQ size: 33, #stores occupied: 3
 341475: system.cpu.iew.lsq.thread0: LQ size: 33, #loads occupied: 2
 341475: system.cpu.iew.lsq.thread0: SQ size: 33, #stores occupied: 3
 404550: system.cpu.iew.lsq.thread0: LQ size: 33, #loads occupied: 2
 404550: system.cpu.iew.lsq.thread0: SQ size: 33, #stores occupied: 3
 404985: system.cpu.iew.lsq.thread0: LQ size: 33, #loads occupied: 2
 404985: system.cpu.iew.lsq.thread0: SQ size: 33, #stores occupied: 3
 405420: system.cpu.iew.lsq.thread0: LQ size: 33, #loads occupied: 2
 405420: system.cpu.iew.lsq.thread0: SQ size: 33, #stores occupied: 3
 438480: system.cpu.iew.lsq.thread0: Marking store as able to write back, PC (0x7ffff7ddc856=>0x7ffff7ddc85d).(1=>2) [sn:44]
 438480: system.cpu.iew.lsq.thread0:    re-executing load sn:42
 438480: system.cpu.iew.lsq.thread0: ToyLSQUnit read happening
 438480: system.cpu.iew.lsq.thread0: A
 438480: system.cpu.iew.lsq.thread0: B
 438480: system.cpu.iew.lsq.thread0: C
 438480: system.cpu.iew.lsq.thread0: Read called, load idx: 0, store idx: -1, storeHead: 7 addr: 0x2de00
 438480: system.cpu.iew.lsq.thread0: Doing memory access for inst [sn:42] PC (0x7ffff7ddc84f=>0x7ffff7ddc856).(1=>2)
 438480: system.cpu.iew.lsq.thread0:    done re-executing load sn:42
0| orig: 14, reex: 224
1| orig: 0, reex: 38
2| orig: 0, reex: 39
3| orig: 0, reex: 4
4| orig: 0, reex: 0
5| orig: 0, reex: 0
6| orig: 0, reex: 0
7| orig: 0, reex: 0
~~~ different data
 438480: system.cpu.iew.lsq.thread0: Committing head load instruction, PC (0x7ffff7ddc84f=>0x7ffff7ddc856).(1=>2), [sn:42]
 438915: system.cpu.iew.lsq.thread0: D-Cache: Writing back store idx:7 PC:(0x7ffff7ddc856=>0x7ffff7ddc85d).(1=>2) to Addr:0x2dbd8, data:0xa [sn:44]
 438915: system.cpu.iew.lsq.thread0: LQ size: 33, #loads occupied: 1
 438915: system.cpu.iew.lsq.thread0: SQ size: 33, #stores occupied: 3
 439350: system.cpu.iew.lsq.thread0: Squashing until [sn:42]!(Loads:1 Stores:3)
 439350: system.cpu.iew.lsq.thread0: Load Instruction PC (0x7ffff7ddc867=>0x7ffff7ddc86e).(1=>2) squashed, [sn:49]
 439350: system.cpu.iew.lsq.thread0: Store Instruction PC (0x7ffff7ddc878=>0x7ffff7ddc87f).(1=>2) squashed, idx:9 [sn:55]
 439350: system.cpu.iew.lsq.thread0: Store Instruction PC (0x7ffff7ddc871=>0x7ffff7ddc878).(1=>2) squashed, idx:8 [sn:53]
 439350: system.cpu.iew.lsq.thread0: LQ size: 33, #loads occupied: 0
 439350: system.cpu.iew.lsq.thread0: SQ size: 33, #stores occupied: 1
 442830: system.cpu.iew.lsq.thread0: Inserting load PC (0x7ffff7ddc84f=>0x7ffff7ddc856).(1=>2), idx:1 [sn:69]
 442830: system.cpu.iew.lsq.thread0: Inserting store PC (0x7ffff7ddc856=>0x7ffff7ddc85d).(1=>2), idx:8 [sn:71]
 442830: system.cpu.iew.lsq.thread0: Inserting load PC (0x7ffff7ddc867=>0x7ffff7ddc86e).(1=>2), idx:2 [sn:76]
 443265: system.cpu.iew.lsq.thread0: Executing load PC (0x7ffff7ddc84f=>0x7ffff7ddc856).(1=>2), [sn:69]
 443265: system.cpu.iew.lsq.thread0: ToyLSQUnit read happening
 443265: system.cpu.iew.lsq.thread0: A
 443265: system.cpu.iew.lsq.thread0: B
 443265: system.cpu.iew.lsq.thread0: C
 443265: system.cpu.iew.lsq.thread0: Read called, load idx: 1, store idx: 8, storeHead: 7 addr: 0x2de18
 443265: system.cpu.iew.lsq.thread0: Doing memory access for inst [sn:69] PC (0x7ffff7ddc84f=>0x7ffff7ddc856).(1=>2)
 443265: system.cpu.iew.lsq.thread0:    copying memData into memDataCopy, size: 69 [sn:8]
 443265: system.cpu.iew.lsq.thread0: LQ size: 33, #loads occupied: 2
 443265: system.cpu.iew.lsq.thread0: SQ size: 33, #stores occupied: 2
 443700: system.cpu.iew.lsq.thread0: Inserting store PC (0x7ffff7ddc871=>0x7ffff7ddc878).(1=>2), idx:9 [sn:80]
 443700: system.cpu.iew.lsq.thread0: Inserting store PC (0x7ffff7ddc878=>0x7ffff7ddc87f).(1=>2), idx:10 [sn:82]
 443700: system.cpu.iew.lsq.thread0: Executing store PC (0x7ffff7ddc856=>0x7ffff7ddc85d).(1=>2) [sn:71]
 443700: system.cpu.iew.lsq.thread0: Doing write to store idx 8, addr 0x2dbd8 | storeHead:7 [sn:71]
 443700: system.cpu.iew.lsq.thread0: Executing load PC (0x7ffff7ddc867=>0x7ffff7ddc86e).(1=>2), [sn:76]
 443700: system.cpu.iew.lsq.thread0: ToyLSQUnit read happening
 443700: system.cpu.iew.lsq.thread0: A
 443700: system.cpu.iew.lsq.thread0: B
 443700: system.cpu.iew.lsq.thread0: C
 443700: system.cpu.iew.lsq.thread0: Read called, load idx: 2, store idx: 9, storeHead: 7 addr: 0x2df90
 443700: system.cpu.iew.lsq.thread0: Doing memory access for inst [sn:76] PC (0x7ffff7ddc867=>0x7ffff7ddc86e).(1=>2)
 443700: system.cpu.iew.lsq.thread0:    copying memData into memDataCopy, size: 76 [sn:8]
 443700: system.cpu.iew.lsq.thread0: LQ size: 33, #loads occupied: 2
 443700: system.cpu.iew.lsq.thread0: SQ size: 33, #stores occupied: 4
 444135: system.cpu.iew.lsq.thread0: LQ size: 33, #loads occupied: 2
 444135: system.cpu.iew.lsq.thread0: SQ size: 33, #stores occupied: 4
 444570: system.cpu.iew.lsq.thread0: Executing store PC (0x7ffff7ddc871=>0x7ffff7ddc878).(1=>2) [sn:80]
 444570: system.cpu.iew.lsq.thread0: Doing write to store idx 9, addr 0x2e9a8 | storeHead:7 [sn:80]
 444570: system.cpu.iew.lsq.thread0: LQ size: 33, #loads occupied: 2
 444570: system.cpu.iew.lsq.thread0: SQ size: 33, #stores occupied: 4
 445005: system.cpu.iew.lsq.thread0: LQ size: 33, #loads occupied: 2
 445005: system.cpu.iew.lsq.thread0: SQ size: 33, #stores occupied: 4
 445440: system.cpu.iew.lsq.thread0: Executing store PC (0x7ffff7ddc878=>0x7ffff7ddc87f).(1=>2) [sn:82]
 445440: system.cpu.iew.lsq.thread0: Doing write to store idx 10, addr 0x2e998 | storeHead:7 [sn:82]
 445440: system.cpu.iew.lsq.thread0: Marking store as able to write back, PC (0x7ffff7ddc856=>0x7ffff7ddc85d).(1=>2) [sn:71]
 445440: system.cpu.iew.lsq.thread0:    re-executing load sn:69
 445440: system.cpu.iew.lsq.thread0: ToyLSQUnit read happening
 445440: system.cpu.iew.lsq.thread0: A
 445440: system.cpu.iew.lsq.thread0: B
 445440: system.cpu.iew.lsq.thread0: C
 445440: system.cpu.iew.lsq.thread0: Read called, load idx: 1, store idx: 8, storeHead: 7 addr: 0x2de18
 445440: system.cpu.iew.lsq.thread0: Doing memory access for inst [sn:69] PC (0x7ffff7ddc84f=>0x7ffff7ddc856).(1=>2)
 445440: system.cpu.iew.lsq.thread0:    done re-executing load sn:69
0| orig: 240, reex: 240
1| orig: 1, reex: 1
2| orig: 0, reex: 0
3| orig: 0, reex: 0
4| orig: 0, reex: 0
5| orig: 0, reex: 0
6| orig: 0, reex: 0
7| orig: 0, reex: 0
~~~ same data
 445440: system.cpu.iew.lsq.thread0: Committing head load instruction, PC (0x7ffff7ddc84f=>0x7ffff7ddc856).(1=>2), [sn:69]
 445440: system.cpu.iew.lsq.thread0: LQ size: 33, #loads occupied: 1
 445440: system.cpu.iew.lsq.thread0: SQ size: 33, #stores occupied: 4
 445875: system.cpu.iew.lsq.thread0:    re-executing load sn:76
 445875: system.cpu.iew.lsq.thread0: ToyLSQUnit read happening
 445875: system.cpu.iew.lsq.thread0: A
 445875: system.cpu.iew.lsq.thread0: B
 445875: system.cpu.iew.lsq.thread0: C
 445875: system.cpu.iew.lsq.thread0: Read called, load idx: 2, store idx: 9, storeHead: 7 addr: 0x2df90
 445875: system.cpu.iew.lsq.thread0: Doing memory access for inst [sn:76] PC (0x7ffff7ddc867=>0x7ffff7ddc86e).(1=>2)
 445875: system.cpu.iew.lsq.thread0:    done re-executing load sn:76
0| orig: 0, reex: 0
1| orig: 30, reex: 30
2| orig: 34, reex: 34
3| orig: 0, reex: 0
4| orig: 0, reex: 0
5| orig: 0, reex: 0
6| orig: 0, reex: 0
7| orig: 0, reex: 0
~~~ same data
 445875: system.cpu.iew.lsq.thread0: Committing head load instruction, PC (0x7ffff7ddc867=>0x7ffff7ddc86e).(1=>2), [sn:76]
 445875: system.cpu.iew.lsq.thread0: LQ size: 33, #loads occupied: 0
 445875: system.cpu.iew.lsq.thread0: SQ size: 33, #stores occupied: 4
 446310: system.cpu.iew.lsq.thread0: LQ size: 33, #loads occupied: 0
 446310: system.cpu.iew.lsq.thread0: SQ size: 33, #stores occupied: 4
 446745: system.cpu.iew.lsq.thread0: Marking store as able to write back, PC (0x7ffff7ddc871=>0x7ffff7ddc878).(1=>2) [sn:80]
 446745: system.cpu.iew.lsq.thread0: Marking store as able to write back, PC (0x7ffff7ddc878=>0x7ffff7ddc87f).(1=>2) [sn:82]
 446745: system.cpu.iew.lsq.thread0: LQ size: 33, #loads occupied: 0
 446745: system.cpu.iew.lsq.thread0: SQ size: 33, #stores occupied: 4
 447180: system.cpu.iew.lsq.thread0: LQ size: 33, #loads occupied: 0
 447180: system.cpu.iew.lsq.thread0: SQ size: 33, #stores occupied: 4
 447615: system.cpu.iew.lsq.thread0: LQ size: 33, #loads occupied: 0
 447615: system.cpu.iew.lsq.thread0: SQ size: 33, #stores occupied: 4
 448050: system.cpu.iew.lsq.thread0: LQ size: 33, #loads occupied: 0
 448050: system.cpu.iew.lsq.thread0: SQ size: 33, #stores occupied: 4
 508515: system.cpu.iew.lsq.thread0: Inserting store PC (0x7ffff7ddc8cf=>0x7ffff7ddc8d3).(0=>1), idx:11 [sn:103]
 508950: system.cpu.iew.lsq.thread0: Inserting load PC (0x7ffff7ddc8d7=>0x7ffff7ddc8da).(0=>1), idx:3 [sn:106]
 508950: system.cpu.iew.lsq.thread0: LQ size: 33, #loads occupied: 1
 508950: system.cpu.iew.lsq.thread0: SQ size: 33, #stores occupied: 5
 509385: system.cpu.iew.lsq.thread0: LQ size: 33, #loads occupied: 1
 509385: system.cpu.iew.lsq.thread0: SQ size: 33, #stores occupied: 5
 509820: system.cpu.iew.lsq.thread0: Executing store PC (0x7ffff7ddc8cf=>0x7ffff7ddc8d3).(0=>1) [sn:103]
 509820: system.cpu.iew.lsq.thread0: Doing write to store idx 11, addr 0x2f958 | storeHead:7 [sn:103]
 509820: system.cpu.iew.lsq.thread0: LQ size: 33, #loads occupied: 1
 509820: system.cpu.iew.lsq.thread0: SQ size: 33, #stores occupied: 5
 510255: system.cpu.iew.lsq.thread0: Squashing until [sn:99]!(Loads:1 Stores:5)
 510255: system.cpu.iew.lsq.thread0: Load Instruction PC (0x7ffff7ddc8d7=>0x7ffff7ddc8da).(0=>1) squashed, [sn:106]
 510255: system.cpu.iew.lsq.thread0: Store Instruction PC (0x7ffff7ddc8cf=>0x7ffff7ddc8d3).(0=>1) squashed, idx:11 [sn:103]
 510255: system.cpu.iew.lsq.thread0: LQ size: 33, #loads occupied: 0
 510255: system.cpu.iew.lsq.thread0: SQ size: 33, #stores occupied: 4
 512430: system.cpu.iew.lsq.thread0: LQ size: 33, #loads occupied: 0
 512430: system.cpu.iew.lsq.thread0: SQ size: 33, #stores occupied: 4
 514605: system.cpu.iew.lsq.thread0: LQ size: 33, #loads occupied: 0
 514605: system.cpu.iew.lsq.thread0: SQ size: 33, #stores occupied: 4
 515040: system.cpu.iew.lsq.thread0: LQ size: 33, #loads occupied: 0
 515040: system.cpu.iew.lsq.thread0: SQ size: 33, #stores occupied: 4
 515475: system.cpu.iew.lsq.thread0: LQ size: 33, #loads occupied: 0
 515475: system.cpu.iew.lsq.thread0: SQ size: 33, #stores occupied: 4
 515910: system.cpu.iew.lsq.thread0: LQ size: 33, #loads occupied: 0
 515910: system.cpu.iew.lsq.thread0: SQ size: 33, #stores occupied: 4
 516345: system.cpu.iew.lsq.thread0: LQ size: 33, #loads occupied: 0
 516345: system.cpu.iew.lsq.thread0: SQ size: 33, #stores occupied: 4
 516780: system.cpu.iew.lsq.thread0: Squashing until [sn:136]!(Loads:0 Stores:4)
 516780: system.cpu.iew.lsq.thread0: LQ size: 33, #loads occupied: 0
 516780: system.cpu.iew.lsq.thread0: SQ size: 33, #stores occupied: 4
 517650: system.cpu.iew.lsq.thread0: LQ size: 33, #loads occupied: 0
 517650: system.cpu.iew.lsq.thread0: SQ size: 33, #stores occupied: 4
 555060: system.cpu.iew.lsq.thread0: Completing store [sn:44], idx:7, store head idx:8
 555060: system.cpu.iew.lsq.thread0: D-Cache: Writing back store idx:8 PC:(0x7ffff7ddc856=>0x7ffff7ddc85d).(1=>2) to Addr:0x2dbd8, data:0 [sn:71]
 555060: system.cpu.iew.lsq.thread0: LQ size: 33, #loads occupied: 0
 555060: system.cpu.iew.lsq.thread0: SQ size: 33, #stores occupied: 3
 555930: system.cpu.iew.lsq.thread0: Completing store [sn:71], idx:8, store head idx:9
 555930: system.cpu.iew.lsq.thread0: D-Cache: Writing back store idx:9 PC:(0x7ffff7ddc871=>0x7ffff7ddc878).(1=>2) to Addr:0x2e9a8, data:0 [sn:80]
 555930: system.cpu.iew.lsq.thread0: LQ size: 33, #loads occupied: 0
 555930: system.cpu.iew.lsq.thread0: SQ size: 33, #stores occupied: 2
 619440: system.cpu.iew.lsq.thread0: Inserting store PC (0x7ffff7ddcae1=>0x7ffff7ddcae5).(0=>1), idx:11 [sn:151]
 619440: system.cpu.iew.lsq.thread0: LQ size: 33, #loads occupied: 0
 619440: system.cpu.iew.lsq.thread0: SQ size: 33, #stores occupied: 3
 619875: system.cpu.iew.lsq.thread0: LQ size: 33, #loads occupied: 0
 619875: system.cpu.iew.lsq.thread0: SQ size: 33, #stores occupied: 3
 620310: system.cpu.iew.lsq.thread0: LQ size: 33, #loads occupied: 0
 620310: system.cpu.iew.lsq.thread0: SQ size: 33, #stores occupied: 3
 620745: system.cpu.iew.lsq.thread0: LQ size: 33, #loads occupied: 0
 620745: system.cpu.iew.lsq.thread0: SQ size: 33, #stores occupied: 3
 621180: system.cpu.iew.lsq.thread0: Squashing until [sn:154]!(Loads:0 Stores:3)
 621180: system.cpu.iew.lsq.thread0: Executing store PC (0x7ffff7ddcae1=>0x7ffff7ddcae5).(0=>1) [sn:151]
 621180: system.cpu.iew.lsq.thread0: Fault on Store PC (0x7ffff7ddcae1=>0x7ffff7ddcae5).(0=>1), [sn:151], Size = 0
 621180: system.cpu.iew.lsq.thread0: LQ size: 33, #loads occupied: 0
 621180: system.cpu.iew.lsq.thread0: SQ size: 33, #stores occupied: 3
 621615: system.cpu.iew.lsq.thread0: Squashing until [sn:145]!(Loads:0 Stores:3)
 621615: system.cpu.iew.lsq.thread0: Store Instruction PC (0x7ffff7ddcae1=>0x7ffff7ddcae5).(0=>1) squashed, idx:11 [sn:151]
 621615: system.cpu.iew.lsq.thread0: LQ size: 33, #loads occupied: 0
 621615: system.cpu.iew.lsq.thread0: SQ size: 33, #stores occupied: 2
 623355: system.cpu.iew.lsq.thread0: LQ size: 33, #loads occupied: 0
 623355: system.cpu.iew.lsq.thread0: SQ size: 33, #stores occupied: 2
 625530: system.cpu.iew.lsq.thread0: LQ size: 33, #loads occupied: 0
 625530: system.cpu.iew.lsq.thread0: SQ size: 33, #stores occupied: 2
 625965: system.cpu.iew.lsq.thread0: LQ size: 33, #loads occupied: 0
 625965: system.cpu.iew.lsq.thread0: SQ size: 33, #stores occupied: 2
 626400: system.cpu.iew.lsq.thread0: LQ size: 33, #loads occupied: 0
 626400: system.cpu.iew.lsq.thread0: SQ size: 33, #stores occupied: 2
 626835: system.cpu.iew.lsq.thread0: LQ size: 33, #loads occupied: 0
 626835: system.cpu.iew.lsq.thread0: SQ size: 33, #stores occupied: 2
 627270: system.cpu.iew.lsq.thread0: LQ size: 33, #loads occupied: 0
 627270: system.cpu.iew.lsq.thread0: SQ size: 33, #stores occupied: 2
 627705: system.cpu.iew.lsq.thread0: Squashing until [sn:170]!(Loads:0 Stores:2)
 627705: system.cpu.iew.lsq.thread0: LQ size: 33, #loads occupied: 0
 627705: system.cpu.iew.lsq.thread0: SQ size: 33, #stores occupied: 2
 628575: system.cpu.iew.lsq.thread0: LQ size: 33, #loads occupied: 0
 628575: system.cpu.iew.lsq.thread0: SQ size: 33, #stores occupied: 2
 639015: system.cpu.iew.lsq.thread0: Completing store [sn:80], idx:9, store head idx:10
 639015: system.cpu.iew.lsq.thread0: D-Cache: Writing back store idx:10 PC:(0x7ffff7ddc878=>0x7ffff7ddc87f).(1=>2) to Addr:0x2e998, data:0 [sn:82]
 639015: system.cpu.iew.lsq.thread0: LQ size: 33, #loads occupied: 0
 639015: system.cpu.iew.lsq.thread0: SQ size: 33, #stores occupied: 1
 639885: system.cpu.iew.lsq.thread0: Completing store [sn:82], idx:10, store head idx:11
 639885: system.cpu.iew.lsq.thread0: LQ size: 33, #loads occupied: 0
 639885: system.cpu.iew.lsq.thread0: SQ size: 33, #stores occupied: 0
 696870: system.cpu.iew.lsq.thread0: Inserting store PC (0x7ffff7ddcb23=>0x7ffff7ddcb27).(0=>1), idx:11 [sn:180]
 696870: system.cpu.iew.lsq.thread0: Inserting load PC (0x7ffff7ddcb30=>0x7ffff7ddcb38).(2=>3), idx:3 [sn:187]
 696870: system.cpu.iew.lsq.thread0: LQ size: 33, #loads occupied: 1
 696870: system.cpu.iew.lsq.thread0: SQ size: 33, #stores occupied: 1
 697305: system.cpu.iew.lsq.thread0: Executing store PC (0x7ffff7ddcb23=>0x7ffff7ddcb27).(0=>1) [sn:180]
 697305: system.cpu.iew.lsq.thread0: Fault on Store PC (0x7ffff7ddcb23=>0x7ffff7ddcb27).(0=>1), [sn:180], Size = 0
 697305: system.cpu.iew.lsq.thread0: LQ size: 33, #loads occupied: 1
 697305: system.cpu.iew.lsq.thread0: SQ size: 33, #stores occupied: 1
 697740: system.cpu.iew.lsq.thread0: Executing load PC (0x7ffff7ddcb30=>0x7ffff7ddcb38).(2=>3), [sn:187]
 697740: system.cpu.iew.lsq.thread0: ToyLSQUnit read happening
 697740: system.cpu.iew.lsq.thread0: A
 697740: system.cpu.iew.lsq.thread0: B
 697740: system.cpu.iew.lsq.thread0: C
 697740: system.cpu.iew.lsq.thread0: Read called, load idx: 3, store idx: 12, storeHead: 11 addr: 0x2ebd0
 697740: system.cpu.iew.lsq.thread0: Doing memory access for inst [sn:187] PC (0x7ffff7ddcb30=>0x7ffff7ddcb38).(2=>3)
 697740: system.cpu.iew.lsq.thread0:    copying memData into memDataCopy, size: 187 [sn:8]
 697740: system.cpu.iew.lsq.thread0: LQ size: 33, #loads occupied: 1
 697740: system.cpu.iew.lsq.thread0: SQ size: 33, #stores occupied: 1
 698175: system.cpu.iew.lsq.thread0: LQ size: 33, #loads occupied: 1
 698175: system.cpu.iew.lsq.thread0: SQ size: 33, #stores occupied: 1
 698610: system.cpu.iew.lsq.thread0: Squashing until [sn:183]!(Loads:1 Stores:1)
 698610: system.cpu.iew.lsq.thread0: Load Instruction PC (0x7ffff7ddcb30=>0x7ffff7ddcb38).(2=>3) squashed, [sn:187]
 698610: system.cpu.iew.lsq.thread0: LQ size: 33, #loads occupied: 0
 698610: system.cpu.iew.lsq.thread0: SQ size: 33, #stores occupied: 1
 699045: system.cpu.iew.lsq.thread0: Squashing until [sn:178]!(Loads:0 Stores:1)
 699045: system.cpu.iew.lsq.thread0: Store Instruction PC (0x7ffff7ddcb23=>0x7ffff7ddcb27).(0=>1) squashed, idx:11 [sn:180]
 699045: system.cpu.iew.lsq.thread0: LQ size: 33, #loads occupied: 0
 699045: system.cpu.iew.lsq.thread0: SQ size: 33, #stores occupied: 0
 700350: system.cpu.iew.lsq.thread0: LQ size: 33, #loads occupied: 0
 700350: system.cpu.iew.lsq.thread0: SQ size: 33, #stores occupied: 0
 702090: system.cpu.iew.lsq.thread0: Inserting load PC (0x7ffff7ddc8d7=>0x7ffff7ddc8da).(0=>1), idx:3 [sn:194]
 702525: system.cpu.iew.lsq.thread0: LQ size: 33, #loads occupied: 1
 702525: system.cpu.iew.lsq.thread0: SQ size: 33, #stores occupied: 0
 702960: system.cpu.iew.lsq.thread0: LQ size: 33, #loads occupied: 1
 702960: system.cpu.iew.lsq.thread0: SQ size: 33, #stores occupied: 0
 703395: system.cpu.iew.lsq.thread0: Executing load PC (0x7ffff7ddc8d7=>0x7ffff7ddc8da).(0=>1), [sn:194]
 703395: system.cpu.iew.lsq.thread0: ToyLSQUnit read happening
 703395: system.cpu.iew.lsq.thread0: A
 703395: system.cpu.iew.lsq.thread0: B
 703395: system.cpu.iew.lsq.thread0: C
 703395: system.cpu.iew.lsq.thread0: Read called, load idx: 3, store idx: -1, storeHead: 11 addr: 0x2de10
 703395: system.cpu.iew.lsq.thread0: Doing memory access for inst [sn:194] PC (0x7ffff7ddc8d7=>0x7ffff7ddc8da).(0=>1)
 703395: system.cpu.iew.lsq.thread0:    copying memData into memDataCopy, size: 194 [sn:8]
 703395: system.cpu.iew.lsq.thread0: LQ size: 33, #loads occupied: 1
 703395: system.cpu.iew.lsq.thread0: SQ size: 33, #stores occupied: 0
 703830: system.cpu.iew.lsq.thread0: Inserting store PC (0x7ffff7ddc902=>0x7ffff7ddc906).(0=>1), idx:11 [sn:215]
 703830: system.cpu.iew.lsq.thread0: Inserting load PC (0x7ffff7ddc90a=>0x7ffff7ddc90d).(0=>1), idx:4 [sn:218]
 703830: system.cpu.iew.lsq.thread0: LQ size: 33, #loads occupied: 2
 703830: system.cpu.iew.lsq.thread0: SQ size: 33, #stores occupied: 1
 704265: system.cpu.iew.lsq.thread0: Inserting load PC (0x7ffff7ddc91b=>0x7ffff7ddc922).(1=>2), idx:5 [sn:228]
 704265: system.cpu.iew.lsq.thread0: LQ size: 33, #loads occupied: 3
 704265: system.cpu.iew.lsq.thread0: SQ size: 33, #stores occupied: 1
 704700: system.cpu.iew.lsq.thread0: Inserting load PC (0x7ffff7ddc927=>0x7ffff7ddc92b).(0=>1), idx:6 [sn:233]
 704700: system.cpu.iew.lsq.thread0: Inserting store PC (0x7ffff7ddc927=>0x7ffff7ddc92b).(2=>3), idx:12 [sn:235]
 704700: system.cpu.iew.lsq.thread0: LQ size: 33, #loads occupied: 4
 704700: system.cpu.iew.lsq.thread0: SQ size: 33, #stores occupied: 2
 705135: system.cpu.iew.lsq.thread0: Inserting load PC (0x7ffff7ddc92b=>0x7ffff7ddc932).(1=>2), idx:7 [sn:237]
 705135: system.cpu.iew.lsq.thread0: Inserting load PC (0x7ffff7ddc937=>0x7ffff7ddc93b).(0=>1), idx:8 [sn:242]
 705135: system.cpu.iew.lsq.thread0: Inserting store PC (0x7ffff7ddc937=>0x7ffff7ddc93b).(2=>3), idx:13 [sn:244]
 705135: system.cpu.iew.lsq.thread0: Executing load PC (0x7ffff7ddc90a=>0x7ffff7ddc90d).(0=>1), [sn:218]
 705135: system.cpu.iew.lsq.thread0: ToyLSQUnit read happening
 705135: system.cpu.iew.lsq.thread0: A
 705135: system.cpu.iew.lsq.thread0: B
 705135: system.cpu.iew.lsq.thread0: C
 705135: system.cpu.iew.lsq.thread0: Read called, load idx: 4, store idx: 12, storeHead: 11 addr: 0x2de20
 705135: system.cpu.iew.lsq.thread0: Doing memory access for inst [sn:218] PC (0x7ffff7ddc90a=>0x7ffff7ddc90d).(0=>1)
 705135: system.cpu.iew.lsq.thread0:    copying memData into memDataCopy, size: 218 [sn:8]
 705135: system.cpu.iew.lsq.thread0: LQ size: 33, #loads occupied: 6
 705135: system.cpu.iew.lsq.thread0: SQ size: 33, #stores occupied: 3
 705570: system.cpu.iew.lsq.thread0:    re-executing load sn:194
 705570: system.cpu.iew.lsq.thread0: ToyLSQUnit read happening
 705570: system.cpu.iew.lsq.thread0: A
 705570: system.cpu.iew.lsq.thread0: B
 705570: system.cpu.iew.lsq.thread0: C
 705570: system.cpu.iew.lsq.thread0: Read called, load idx: 3, store idx: -1, storeHead: 11 addr: 0x2de10
 705570: system.cpu.iew.lsq.thread0: Doing memory access for inst [sn:194] PC (0x7ffff7ddc8d7=>0x7ffff7ddc8da).(0=>1)
 705570: system.cpu.iew.lsq.thread0:    done re-executing load sn:194
0| orig: 4, reex: 4
1| orig: 0, reex: 0
2| orig: 0, reex: 0
3| orig: 0, reex: 0
4| orig: 0, reex: 0
5| orig: 0, reex: 0
6| orig: 0, reex: 0
7| orig: 0, reex: 0
~~~ same data
 705570: system.cpu.iew.lsq.thread0: Committing head load instruction, PC (0x7ffff7ddc8d7=>0x7ffff7ddc8da).(0=>1), [sn:194]
 705570: system.cpu.iew.lsq.thread0: LQ size: 33, #loads occupied: 5
 705570: system.cpu.iew.lsq.thread0: SQ size: 33, #stores occupied: 3
 706005: system.cpu.iew.lsq.thread0: Squashing until [sn:203]!(Loads:5 Stores:3)
 706005: system.cpu.iew.lsq.thread0: Load Instruction PC (0x7ffff7ddc937=>0x7ffff7ddc93b).(0=>1) squashed, [sn:242]
 706005: system.cpu.iew.lsq.thread0: Load Instruction PC (0x7ffff7ddc92b=>0x7ffff7ddc932).(1=>2) squashed, [sn:237]
 706005: system.cpu.iew.lsq.thread0: Load Instruction PC (0x7ffff7ddc927=>0x7ffff7ddc92b).(0=>1) squashed, [sn:233]
 706005: system.cpu.iew.lsq.thread0: Load Instruction PC (0x7ffff7ddc91b=>0x7ffff7ddc922).(1=>2) squashed, [sn:228]
 706005: system.cpu.iew.lsq.thread0: Load Instruction PC (0x7ffff7ddc90a=>0x7ffff7ddc90d).(0=>1) squashed, [sn:218]
 706005: system.cpu.iew.lsq.thread0: Store Instruction PC (0x7ffff7ddc937=>0x7ffff7ddc93b).(2=>3) squashed, idx:13 [sn:244]
 706005: system.cpu.iew.lsq.thread0: Store Instruction PC (0x7ffff7ddc927=>0x7ffff7ddc92b).(2=>3) squashed, idx:12 [sn:235]
 706005: system.cpu.iew.lsq.thread0: Store Instruction PC (0x7ffff7ddc902=>0x7ffff7ddc906).(0=>1) squashed, idx:11 [sn:215]
 706005: system.cpu.iew.lsq.thread0: LQ size: 33, #loads occupied: 0
 706005: system.cpu.iew.lsq.thread0: SQ size: 33, #stores occupied: 0
 709050: system.cpu.iew.lsq.thread0: LQ size: 33, #loads occupied: 0
 709050: system.cpu.iew.lsq.thread0: SQ size: 33, #stores occupied: 0
 709485: system.cpu.iew.lsq.thread0: LQ size: 33, #loads occupied: 0
 709485: system.cpu.iew.lsq.thread0: SQ size: 33, #stores occupied: 0
 710790: system.cpu.iew.lsq.thread0: Inserting store PC (0x7ffff7ddc8cf=>0x7ffff7ddc8d3).(0=>1), idx:11 [sn:247]
 710790: system.cpu.iew.lsq.thread0: Inserting load PC (0x7ffff7ddc8d7=>0x7ffff7ddc8da).(0=>1), idx:4 [sn:250]
 711225: system.cpu.iew.lsq.thread0: LQ size: 33, #loads occupied: 1
 711225: system.cpu.iew.lsq.thread0: SQ size: 33, #stores occupied: 1
 711660: system.cpu.iew.lsq.thread0: LQ size: 33, #loads occupied: 1
 711660: system.cpu.iew.lsq.thread0: SQ size: 33, #stores occupied: 1
 712095: system.cpu.iew.lsq.thread0: Executing store PC (0x7ffff7ddc8cf=>0x7ffff7ddc8d3).(0=>1) [sn:247]
 712095: system.cpu.iew.lsq.thread0: Doing write to store idx 11, addr 0x2e9f8 | storeHead:11 [sn:247]
 712095: system.cpu.iew.lsq.thread0: Executing load PC (0x7ffff7ddc8d7=>0x7ffff7ddc8da).(0=>1), [sn:250]
 712095: system.cpu.iew.lsq.thread0: ToyLSQUnit read happening
 712095: system.cpu.iew.lsq.thread0: A
 712095: system.cpu.iew.lsq.thread0: B
 712095: system.cpu.iew.lsq.thread0: C
 712095: system.cpu.iew.lsq.thread0: Read called, load idx: 4, store idx: 12, storeHead: 11 addr: 0x2de20
 712095: system.cpu.iew.lsq.thread0: Doing memory access for inst [sn:250] PC (0x7ffff7ddc8d7=>0x7ffff7ddc8da).(0=>1)
 712095: system.cpu.iew.lsq.thread0:    copying memData into memDataCopy, size: 250 [sn:8]
 712095: system.cpu.iew.lsq.thread0: LQ size: 33, #loads occupied: 1
 712095: system.cpu.iew.lsq.thread0: SQ size: 33, #stores occupied: 1
 712530: system.cpu.iew.lsq.thread0: Inserting store PC (0x7ffff7ddc902=>0x7ffff7ddc906).(0=>1), idx:12 [sn:271]
 712530: system.cpu.iew.lsq.thread0: Inserting load PC (0x7ffff7ddc90a=>0x7ffff7ddc90d).(0=>1), idx:5 [sn:274]
 712530: system.cpu.iew.lsq.thread0: LQ size: 33, #loads occupied: 2
 712530: system.cpu.iew.lsq.thread0: SQ size: 33, #stores occupied: 2
 712965: system.cpu.iew.lsq.thread0: Inserting load PC (0x7ffff7ddc91b=>0x7ffff7ddc922).(1=>2), idx:6 [sn:284]
 712965: system.cpu.iew.lsq.thread0: LQ size: 33, #loads occupied: 3
 712965: system.cpu.iew.lsq.thread0: SQ size: 33, #stores occupied: 2
 713400: system.cpu.iew.lsq.thread0: Inserting load PC (0x7ffff7ddc927=>0x7ffff7ddc92b).(0=>1), idx:7 [sn:289]
 713400: system.cpu.iew.lsq.thread0: Inserting store PC (0x7ffff7ddc927=>0x7ffff7ddc92b).(2=>3), idx:13 [sn:291]
 713400: system.cpu.iew.lsq.thread0: Marking store as able to write back, PC (0x7ffff7ddc8cf=>0x7ffff7ddc8d3).(0=>1) [sn:247]
 713400: system.cpu.iew.lsq.thread0: LQ size: 33, #loads occupied: 4
 713400: system.cpu.iew.lsq.thread0: SQ size: 33, #stores occupied: 3
 713835: system.cpu.iew.lsq.thread0: Inserting load PC (0x7ffff7ddc92b=>0x7ffff7ddc932).(1=>2), idx:8 [sn:293]
 713835: system.cpu.iew.lsq.thread0: Inserting load PC (0x7ffff7ddc937=>0x7ffff7ddc93b).(0=>1), idx:9 [sn:298]
 713835: system.cpu.iew.lsq.thread0: Inserting store PC (0x7ffff7ddc937=>0x7ffff7ddc93b).(2=>3), idx:14 [sn:300]
 713835: system.cpu.iew.lsq.thread0: Executing load PC (0x7ffff7ddc90a=>0x7ffff7ddc90d).(0=>1), [sn:274]
 713835: system.cpu.iew.lsq.thread0: ToyLSQUnit read happening
 713835: system.cpu.iew.lsq.thread0: A
 713835: system.cpu.iew.lsq.thread0: B
 713835: system.cpu.iew.lsq.thread0: C
 713835: system.cpu.iew.lsq.thread0: Read called, load idx: 5, store idx: 13, storeHead: 11 addr: 0x2de30
 713835: system.cpu.iew.lsq.thread0: Doing memory access for inst [sn:274] PC (0x7ffff7ddc90a=>0x7ffff7ddc90d).(0=>1)
 713835: system.cpu.iew.lsq.thread0:    copying memData into memDataCopy, size: 274 [sn:8]
 713835: system.cpu.iew.lsq.thread0: D-Cache: Writing back store idx:11 PC:(0x7ffff7ddc8cf=>0x7ffff7ddc8d3).(0=>1) to Addr:0x2e9f8, data:0x10 [sn:247]
 713835: system.cpu.iew.lsq.thread0: LQ size: 33, #loads occupied: 6
 713835: system.cpu.iew.lsq.thread0: SQ size: 33, #stores occupied: 4
 714270: system.cpu.iew.lsq.thread0:    re-executing load sn:250
 714270: system.cpu.iew.lsq.thread0: ToyLSQUnit read happening
 714270: system.cpu.iew.lsq.thread0: A
 714270: system.cpu.iew.lsq.thread0: B
 714270: system.cpu.iew.lsq.thread0: C
 714270: system.cpu.iew.lsq.thread0: Read called, load idx: 4, store idx: 12, storeHead: 11 addr: 0x2de20
 714270: system.cpu.iew.lsq.thread0: Doing memory access for inst [sn:250] PC (0x7ffff7ddc8d7=>0x7ffff7ddc8da).(0=>1)
 714270: system.cpu.iew.lsq.thread0:    done re-executing load sn:250
0| orig: 245, reex: 245
1| orig: 254, reex: 254
2| orig: 255, reex: 255
3| orig: 111, reex: 111
4| orig: 0, reex: 0
5| orig: 0, reex: 0
6| orig: 0, reex: 0
7| orig: 0, reex: 0
~~~ same data
 714270: system.cpu.iew.lsq.thread0: Committing head load instruction, PC (0x7ffff7ddc8d7=>0x7ffff7ddc8da).(0=>1), [sn:250]
 714270: system.cpu.iew.lsq.thread0: LQ size: 33, #loads occupied: 5
 714270: system.cpu.iew.lsq.thread0: SQ size: 33, #stores occupied: 4
 714705: system.cpu.iew.lsq.thread0: Executing store PC (0x7ffff7ddc902=>0x7ffff7ddc906).(0=>1) [sn:271]
 714705: system.cpu.iew.lsq.thread0: Doing write to store idx 12, addr 0x2f338 | storeHead:11 [sn:271]
 714705: system.cpu.iew.lsq.thread0: Executing load PC (0x7ffff7ddc91b=>0x7ffff7ddc922).(1=>2), [sn:284]
 714705: system.cpu.iew.lsq.thread0: ToyLSQUnit read happening
 714705: system.cpu.iew.lsq.thread0: A
 714705: system.cpu.iew.lsq.thread0: B
 714705: system.cpu.iew.lsq.thread0: C
 714705: system.cpu.iew.lsq.thread0: Read called, load idx: 6, store idx: 13, storeHead: 11 addr: 0x2e9f8
 714705: system.cpu.iew.lsq.thread0: Doing memory access for inst [sn:284] PC (0x7ffff7ddc91b=>0x7ffff7ddc922).(1=>2)
 714705: system.cpu.iew.lsq.thread0:    copying memData into memDataCopy, size: 284 [sn:8]
 714705: system.cpu.iew.lsq.thread0: Executing load PC (0x7ffff7ddc92b=>0x7ffff7ddc932).(1=>2), [sn:293]
 714705: system.cpu.iew.lsq.thread0: ToyLSQUnit read happening
 714705: system.cpu.iew.lsq.thread0: A
 714705: system.cpu.iew.lsq.thread0: B
 714705: system.cpu.iew.lsq.thread0: C
 714705: system.cpu.iew.lsq.thread0: Read called, load idx: 8, store idx: 14, storeHead: 11 addr: 0x2e9f0
 714705: system.cpu.iew.lsq.thread0: Doing memory access for inst [sn:293] PC (0x7ffff7ddc92b=>0x7ffff7ddc932).(1=>2)
 714705: system.cpu.iew.lsq.thread0:    copying memData into memDataCopy, size: 293 [sn:8]
 714705: system.cpu.iew.lsq.thread0: LQ size: 33, #loads occupied: 5
 714705: system.cpu.iew.lsq.thread0: SQ size: 33, #stores occupied: 4
 715140: system.cpu.iew.lsq.thread0: Squashing until [sn:266]!(Loads:5 Stores:4)
 715140: system.cpu.iew.lsq.thread0: Load Instruction PC (0x7ffff7ddc937=>0x7ffff7ddc93b).(0=>1) squashed, [sn:298]
 715140: system.cpu.iew.lsq.thread0: Load Instruction PC (0x7ffff7ddc92b=>0x7ffff7ddc932).(1=>2) squashed, [sn:293]
 715140: system.cpu.iew.lsq.thread0: Load Instruction PC (0x7ffff7ddc927=>0x7ffff7ddc92b).(0=>1) squashed, [sn:289]
 715140: system.cpu.iew.lsq.thread0: Load Instruction PC (0x7ffff7ddc91b=>0x7ffff7ddc922).(1=>2) squashed, [sn:284]
 715140: system.cpu.iew.lsq.thread0: Load Instruction PC (0x7ffff7ddc90a=>0x7ffff7ddc90d).(0=>1) squashed, [sn:274]
 715140: system.cpu.iew.lsq.thread0: Store Instruction PC (0x7ffff7ddc937=>0x7ffff7ddc93b).(2=>3) squashed, idx:14 [sn:300]
 715140: system.cpu.iew.lsq.thread0: Store Instruction PC (0x7ffff7ddc927=>0x7ffff7ddc92b).(2=>3) squashed, idx:13 [sn:291]
 715140: system.cpu.iew.lsq.thread0: Store Instruction PC (0x7ffff7ddc902=>0x7ffff7ddc906).(0=>1) squashed, idx:12 [sn:271]
 715140: system.cpu.iew.lsq.thread0: LQ size: 33, #loads occupied: 0
 715140: system.cpu.iew.lsq.thread0: SQ size: 33, #stores occupied: 1
 717750: system.cpu.iew.lsq.thread0: LQ size: 33, #loads occupied: 0
 717750: system.cpu.iew.lsq.thread0: SQ size: 33, #stores occupied: 1
 718185: system.cpu.iew.lsq.thread0: LQ size: 33, #loads occupied: 0
 718185: system.cpu.iew.lsq.thread0: SQ size: 33, #stores occupied: 1
 719925: system.cpu.iew.lsq.thread0: LQ size: 33, #loads occupied: 0
 719925: system.cpu.iew.lsq.thread0: SQ size: 33, #stores occupied: 1
 720360: system.cpu.iew.lsq.thread0: Inserting store PC (0x7ffff7ddcae1=>0x7ffff7ddcae5).(0=>1), idx:12 [sn:313]
 720360: system.cpu.iew.lsq.thread0: LQ size: 33, #loads occupied: 0
 720360: system.cpu.iew.lsq.thread0: SQ size: 33, #stores occupied: 2
 720795: system.cpu.iew.lsq.thread0: LQ size: 33, #loads occupied: 0
 720795: system.cpu.iew.lsq.thread0: SQ size: 33, #stores occupied: 2
 721230: system.cpu.iew.lsq.thread0: Inserting store PC (0x7ffff7ddcaff=>0x7ffff7ddcb03).(0=>1), idx:13 [sn:326]
 721230: system.cpu.iew.lsq.thread0: LQ size: 33, #loads occupied: 0
 721230: system.cpu.iew.lsq.thread0: SQ size: 33, #stores occupied: 3
 721665: system.cpu.iew.lsq.thread0: Inserting store PC (0x7ffff7ddcb23=>0x7ffff7ddcb27).(0=>1), idx:14 [sn:339]
 721665: system.cpu.iew.lsq.thread0: Executing store PC (0x7ffff7ddcae1=>0x7ffff7ddcae5).(0=>1) [sn:313]
 721665: system.cpu.iew.lsq.thread0: Fault on Store PC (0x7ffff7ddcae1=>0x7ffff7ddcae5).(0=>1), [sn:313], Size = 0
 721665: system.cpu.iew.lsq.thread0: LQ size: 33, #loads occupied: 0
 721665: system.cpu.iew.lsq.thread0: SQ size: 33, #stores occupied: 4
 722100: system.cpu.iew.lsq.thread0: Squashing until [sn:307]!(Loads:0 Stores:4)
 722100: system.cpu.iew.lsq.thread0: Store Instruction PC (0x7ffff7ddcb23=>0x7ffff7ddcb27).(0=>1) squashed, idx:14 [sn:339]
 722100: system.cpu.iew.lsq.thread0: Store Instruction PC (0x7ffff7ddcaff=>0x7ffff7ddcb03).(0=>1) squashed, idx:13 [sn:326]
 722100: system.cpu.iew.lsq.thread0: Store Instruction PC (0x7ffff7ddcae1=>0x7ffff7ddcae5).(0=>1) squashed, idx:12 [sn:313]
 722100: system.cpu.iew.lsq.thread0: LQ size: 33, #loads occupied: 0
 722100: system.cpu.iew.lsq.thread0: SQ size: 33, #stores occupied: 1
 724710: system.cpu.iew.lsq.thread0: LQ size: 33, #loads occupied: 0
 724710: system.cpu.iew.lsq.thread0: SQ size: 33, #stores occupied: 1
 726885: system.cpu.iew.lsq.thread0: LQ size: 33, #loads occupied: 0
 726885: system.cpu.iew.lsq.thread0: SQ size: 33, #stores occupied: 1
 727320: system.cpu.iew.lsq.thread0: Inserting store PC (0x7ffff7ddcaff=>0x7ffff7ddcb03).(0=>1), idx:12 [sn:359]
 727320: system.cpu.iew.lsq.thread0: LQ size: 33, #loads occupied: 0
 727320: system.cpu.iew.lsq.thread0: SQ size: 33, #stores occupied: 2
 727755: system.cpu.iew.lsq.thread0: Inserting store PC (0x7ffff7ddcb23=>0x7ffff7ddcb27).(0=>1), idx:13 [sn:372]
 727755: system.cpu.iew.lsq.thread0: Executing store PC (0x7ffff7ddcaff=>0x7ffff7ddcb03).(0=>1) [sn:359]
 727755: system.cpu.iew.lsq.thread0: Doing write to store idx 12, addr 0x2e3d0 | storeHead:11 [sn:359]
 727755: system.cpu.iew.lsq.thread0: LQ size: 33, #loads occupied: 0
 727755: system.cpu.iew.lsq.thread0: SQ size: 33, #stores occupied: 3
 728190: system.cpu.iew.lsq.thread0: Inserting load PC (0x7ffff7ddcb30=>0x7ffff7ddcb38).(2=>3), idx:5 [sn:379]
 728190: system.cpu.iew.lsq.thread0: LQ size: 33, #loads occupied: 1
 728190: system.cpu.iew.lsq.thread0: SQ size: 33, #stores occupied: 3
 728625: system.cpu.iew.lsq.thread0: Executing store PC (0x7ffff7ddcb23=>0x7ffff7ddcb27).(0=>1) [sn:372]
 728625: system.cpu.iew.lsq.thread0: Fault on Store PC (0x7ffff7ddcb23=>0x7ffff7ddcb27).(0=>1), [sn:372], Size = 0
 728625: system.cpu.iew.lsq.thread0: LQ size: 33, #loads occupied: 1
 728625: system.cpu.iew.lsq.thread0: SQ size: 33, #stores occupied: 3
 729060: system.cpu.iew.lsq.thread0: Squashing until [sn:357]!(Loads:1 Stores:3)
 729060: system.cpu.iew.lsq.thread0: Load Instruction PC (0x7ffff7ddcb30=>0x7ffff7ddcb38).(2=>3) squashed, [sn:379]
 729060: system.cpu.iew.lsq.thread0: Store Instruction PC (0x7ffff7ddcb23=>0x7ffff7ddcb27).(0=>1) squashed, idx:13 [sn:372]
 729060: system.cpu.iew.lsq.thread0: Store Instruction PC (0x7ffff7ddcaff=>0x7ffff7ddcb03).(0=>1) squashed, idx:12 [sn:359]
 729060: system.cpu.iew.lsq.thread0: LQ size: 33, #loads occupied: 0
 729060: system.cpu.iew.lsq.thread0: SQ size: 33, #stores occupied: 1
 731235: system.cpu.iew.lsq.thread0: LQ size: 33, #loads occupied: 0
 731235: system.cpu.iew.lsq.thread0: SQ size: 33, #stores occupied: 1
 733410: system.cpu.iew.lsq.thread0: LQ size: 33, #loads occupied: 0
 733410: system.cpu.iew.lsq.thread0: SQ size: 33, #stores occupied: 1
 733845: system.cpu.iew.lsq.thread0: Inserting store PC (0x7ffff7ddcb23=>0x7ffff7ddcb27).(0=>1), idx:12 [sn:392]
 733845: system.cpu.iew.lsq.thread0: Inserting load PC (0x7ffff7ddcb30=>0x7ffff7ddcb38).(2=>3), idx:5 [sn:399]
 733845: system.cpu.iew.lsq.thread0: LQ size: 33, #loads occupied: 1
 733845: system.cpu.iew.lsq.thread0: SQ size: 33, #stores occupied: 2
 734280: system.cpu.iew.lsq.thread0: Executing store PC (0x7ffff7ddcb23=>0x7ffff7ddcb27).(0=>1) [sn:392]
 734280: system.cpu.iew.lsq.thread0: Doing write to store idx 12, addr 0x2ec30 | storeHead:11 [sn:392]
 734280: system.cpu.iew.lsq.thread0: LQ size: 33, #loads occupied: 1
 734280: system.cpu.iew.lsq.thread0: SQ size: 33, #stores occupied: 2
 734715: system.cpu.iew.lsq.thread0: Executing load PC (0x7ffff7ddcb30=>0x7ffff7ddcb38).(2=>3), [sn:399]
 734715: system.cpu.iew.lsq.thread0: ToyLSQUnit read happening
 734715: system.cpu.iew.lsq.thread0: A
 734715: system.cpu.iew.lsq.thread0: B
 734715: system.cpu.iew.lsq.thread0: C
 734715: system.cpu.iew.lsq.thread0: Read called, load idx: 5, store idx: 13, storeHead: 11 addr: 0x2ebd0
 734715: system.cpu.iew.lsq.thread0: Doing memory access for inst [sn:399] PC (0x7ffff7ddcb30=>0x7ffff7ddcb38).(2=>3)
 734715: system.cpu.iew.lsq.thread0:    copying memData into memDataCopy, size: 399 [sn:8]
 734715: system.cpu.iew.lsq.thread0: LQ size: 33, #loads occupied: 1
 734715: system.cpu.iew.lsq.thread0: SQ size: 33, #stores occupied: 2
 735150: system.cpu.iew.lsq.thread0: LQ size: 33, #loads occupied: 1
 735150: system.cpu.iew.lsq.thread0: SQ size: 33, #stores occupied: 2
 735585: system.cpu.iew.lsq.thread0: Squashing until [sn:395]!(Loads:1 Stores:2)
 735585: system.cpu.iew.lsq.thread0: Load Instruction PC (0x7ffff7ddcb30=>0x7ffff7ddcb38).(2=>3) squashed, [sn:399]
 735585: system.cpu.iew.lsq.thread0: LQ size: 33, #loads occupied: 0
 735585: system.cpu.iew.lsq.thread0: SQ size: 33, #stores occupied: 2
 736020: system.cpu.iew.lsq.thread0: Marking store as able to write back, PC (0x7ffff7ddcb23=>0x7ffff7ddcb27).(0=>1) [sn:392]
 736455: system.cpu.iew.lsq.thread0: LQ size: 33, #loads occupied: 0
 736455: system.cpu.iew.lsq.thread0: SQ size: 33, #stores occupied: 2
 736890: system.cpu.iew.lsq.thread0: LQ size: 33, #loads occupied: 0
 736890: system.cpu.iew.lsq.thread0: SQ size: 33, #stores occupied: 2
 738630: system.cpu.iew.lsq.thread0: Inserting load PC (0x7ffff7ddc8d7=>0x7ffff7ddc8da).(0=>1), idx:5 [sn:406]
 739065: system.cpu.iew.lsq.thread0: LQ size: 33, #loads occupied: 1
 739065: system.cpu.iew.lsq.thread0: SQ size: 33, #stores occupied: 2
 739500: system.cpu.iew.lsq.thread0: LQ size: 33, #loads occupied: 1
 739500: system.cpu.iew.lsq.thread0: SQ size: 33, #stores occupied: 2
 739935: system.cpu.iew.lsq.thread0: Executing load PC (0x7ffff7ddc8d7=>0x7ffff7ddc8da).(0=>1), [sn:406]
 739935: system.cpu.iew.lsq.thread0: ToyLSQUnit read happening
 739935: system.cpu.iew.lsq.thread0: A
 739935: system.cpu.iew.lsq.thread0: B
 739935: system.cpu.iew.lsq.thread0: C
 739935: system.cpu.iew.lsq.thread0: Read called, load idx: 5, store idx: 13, storeHead: 11 addr: 0x2de30
 739935: system.cpu.iew.lsq.thread0: Doing memory access for inst [sn:406] PC (0x7ffff7ddc8d7=>0x7ffff7ddc8da).(0=>1)
 739935: system.cpu.iew.lsq.thread0:    copying memData into memDataCopy, size: 406 [sn:8]
 739935: system.cpu.iew.lsq.thread0: LQ size: 33, #loads occupied: 1
 739935: system.cpu.iew.lsq.thread0: SQ size: 33, #stores occupied: 2
 740370: system.cpu.iew.lsq.thread0: Inserting store PC (0x7ffff7ddc902=>0x7ffff7ddc906).(0=>1), idx:13 [sn:427]
 740370: system.cpu.iew.lsq.thread0: Inserting load PC (0x7ffff7ddc90a=>0x7ffff7ddc90d).(0=>1), idx:6 [sn:430]
 740805: system.cpu.iew.lsq.thread0: Inserting load PC (0x7ffff7ddc91b=>0x7ffff7ddc922).(1=>2), idx:7 [sn:440]
 740805: system.cpu.iew.lsq.thread0: LQ size: 33, #loads occupied: 3
 740805: system.cpu.iew.lsq.thread0: SQ size: 33, #stores occupied: 3
 741240: system.cpu.iew.lsq.thread0: Inserting load PC (0x7ffff7ddc927=>0x7ffff7ddc92b).(0=>1), idx:8 [sn:445]
 741240: system.cpu.iew.lsq.thread0: Inserting store PC (0x7ffff7ddc927=>0x7ffff7ddc92b).(2=>3), idx:14 [sn:447]
 741240: system.cpu.iew.lsq.thread0: LQ size: 33, #loads occupied: 4
 741240: system.cpu.iew.lsq.thread0: SQ size: 33, #stores occupied: 4
 741675: system.cpu.iew.lsq.thread0: Inserting load PC (0x7ffff7ddc92b=>0x7ffff7ddc932).(1=>2), idx:9 [sn:449]
 741675: system.cpu.iew.lsq.thread0: Inserting load PC (0x7ffff7ddc937=>0x7ffff7ddc93b).(0=>1), idx:10 [sn:454]
 741675: system.cpu.iew.lsq.thread0: Inserting store PC (0x7ffff7ddc937=>0x7ffff7ddc93b).(2=>3), idx:15 [sn:456]
 741675: system.cpu.iew.lsq.thread0: Executing load PC (0x7ffff7ddc90a=>0x7ffff7ddc90d).(0=>1), [sn:430]
 741675: system.cpu.iew.lsq.thread0: ToyLSQUnit read happening
 741675: system.cpu.iew.lsq.thread0: A
 741675: system.cpu.iew.lsq.thread0: B
 741675: system.cpu.iew.lsq.thread0: C
 741675: system.cpu.iew.lsq.thread0: Read called, load idx: 6, store idx: 14, storeHead: 11 addr: 0x2de40
 741675: system.cpu.iew.lsq.thread0: Doing memory access for inst [sn:430] PC (0x7ffff7ddc90a=>0x7ffff7ddc90d).(0=>1)
 741675: system.cpu.iew.lsq.thread0:    copying memData into memDataCopy, size: 430 [sn:8]
 741675: system.cpu.iew.lsq.thread0: LQ size: 33, #loads occupied: 6
 741675: system.cpu.iew.lsq.thread0: SQ size: 33, #stores occupied: 5
 742110: system.cpu.iew.lsq.thread0:    re-executing load sn:406
 742110: system.cpu.iew.lsq.thread0: ToyLSQUnit read happening
 742110: system.cpu.iew.lsq.thread0: A
 742110: system.cpu.iew.lsq.thread0: B
 742110: system.cpu.iew.lsq.thread0: C
 742110: system.cpu.iew.lsq.thread0: Read called, load idx: 5, store idx: 13, storeHead: 11 addr: 0x2de30
 742110: system.cpu.iew.lsq.thread0: Doing memory access for inst [sn:406] PC (0x7ffff7ddc8d7=>0x7ffff7ddc8da).(0=>1)
 742110: system.cpu.iew.lsq.thread0:    done re-executing load sn:406
0| orig: 5, reex: 5
1| orig: 0, reex: 0
2| orig: 0, reex: 0
3| orig: 0, reex: 0
4| orig: 0, reex: 0
5| orig: 0, reex: 0
6| orig: 0, reex: 0
7| orig: 0, reex: 0
~~~ same data
 742110: system.cpu.iew.lsq.thread0: Committing head load instruction, PC (0x7ffff7ddc8d7=>0x7ffff7ddc8da).(0=>1), [sn:406]
 742110: system.cpu.iew.lsq.thread0: LQ size: 33, #loads occupied: 5
 742110: system.cpu.iew.lsq.thread0: SQ size: 33, #stores occupied: 5
 742545: system.cpu.iew.lsq.thread0: Squashing until [sn:415]!(Loads:5 Stores:5)
 742545: system.cpu.iew.lsq.thread0: Load Instruction PC (0x7ffff7ddc937=>0x7ffff7ddc93b).(0=>1) squashed, [sn:454]
 742545: system.cpu.iew.lsq.thread0: Load Instruction PC (0x7ffff7ddc92b=>0x7ffff7ddc932).(1=>2) squashed, [sn:449]
 742545: system.cpu.iew.lsq.thread0: Load Instruction PC (0x7ffff7ddc927=>0x7ffff7ddc92b).(0=>1) squashed, [sn:445]
 742545: system.cpu.iew.lsq.thread0: Load Instruction PC (0x7ffff7ddc91b=>0x7ffff7ddc922).(1=>2) squashed, [sn:440]
 742545: system.cpu.iew.lsq.thread0: Load Instruction PC (0x7ffff7ddc90a=>0x7ffff7ddc90d).(0=>1) squashed, [sn:430]
 742545: system.cpu.iew.lsq.thread0: Store Instruction PC (0x7ffff7ddc937=>0x7ffff7ddc93b).(2=>3) squashed, idx:15 [sn:456]
 742545: system.cpu.iew.lsq.thread0: Store Instruction PC (0x7ffff7ddc927=>0x7ffff7ddc92b).(2=>3) squashed, idx:14 [sn:447]
 742545: system.cpu.iew.lsq.thread0: Store Instruction PC (0x7ffff7ddc902=>0x7ffff7ddc906).(0=>1) squashed, idx:13 [sn:427]
 742545: system.cpu.iew.lsq.thread0: LQ size: 33, #loads occupied: 0
 742545: system.cpu.iew.lsq.thread0: SQ size: 33, #stores occupied: 2
 745590: system.cpu.iew.lsq.thread0: LQ size: 33, #loads occupied: 0
 745590: system.cpu.iew.lsq.thread0: SQ size: 33, #stores occupied: 2
 746025: system.cpu.iew.lsq.thread0: LQ size: 33, #loads occupied: 0
 746025: system.cpu.iew.lsq.thread0: SQ size: 33, #stores occupied: 2
 747330: system.cpu.iew.lsq.thread0: Inserting store PC (0x7ffff7ddc8cf=>0x7ffff7ddc8d3).(0=>1), idx:13 [sn:459]
 747330: system.cpu.iew.lsq.thread0: Inserting load PC (0x7ffff7ddc8d7=>0x7ffff7ddc8da).(0=>1), idx:6 [sn:462]
 747765: system.cpu.iew.lsq.thread0: LQ size: 33, #loads occupied: 1
 747765: system.cpu.iew.lsq.thread0: SQ size: 33, #stores occupied: 3
 748200: system.cpu.iew.lsq.thread0: LQ size: 33, #loads occupied: 1
 748200: system.cpu.iew.lsq.thread0: SQ size: 33, #stores occupied: 3
 748635: system.cpu.iew.lsq.thread0: Executing store PC (0x7ffff7ddc8cf=>0x7ffff7ddc8d3).(0=>1) [sn:459]
 748635: system.cpu.iew.lsq.thread0: Doing write to store idx 13, addr 0x2ea00 | storeHead:11 [sn:459]
 748635: system.cpu.iew.lsq.thread0: Executing load PC (0x7ffff7ddc8d7=>0x7ffff7ddc8da).(0=>1), [sn:462]
 748635: system.cpu.iew.lsq.thread0: ToyLSQUnit read happening
 748635: system.cpu.iew.lsq.thread0: A
 748635: system.cpu.iew.lsq.thread0: B
 748635: system.cpu.iew.lsq.thread0: C
 748635: system.cpu.iew.lsq.thread0: Read called, load idx: 6, store idx: 14, storeHead: 11 addr: 0x2de40
 748635: system.cpu.iew.lsq.thread0: Doing memory access for inst [sn:462] PC (0x7ffff7ddc8d7=>0x7ffff7ddc8da).(0=>1)
 748635: system.cpu.iew.lsq.thread0:    copying memData into memDataCopy, size: 462 [sn:8]
 748635: system.cpu.iew.lsq.thread0: LQ size: 33, #loads occupied: 1
 748635: system.cpu.iew.lsq.thread0: SQ size: 33, #stores occupied: 3
 749070: system.cpu.iew.lsq.thread0: Inserting store PC (0x7ffff7ddc902=>0x7ffff7ddc906).(0=>1), idx:14 [sn:483]
 749070: system.cpu.iew.lsq.thread0: Inserting load PC (0x7ffff7ddc90a=>0x7ffff7ddc90d).(0=>1), idx:7 [sn:486]
 749070: system.cpu.iew.lsq.thread0: LQ size: 33, #loads occupied: 2
 749070: system.cpu.iew.lsq.thread0: SQ size: 33, #stores occupied: 4
 749505: system.cpu.iew.lsq.thread0: Inserting load PC (0x7ffff7ddc91b=>0x7ffff7ddc922).(1=>2), idx:8 [sn:496]
 749505: system.cpu.iew.lsq.thread0: LQ size: 33, #loads occupied: 3
 749505: system.cpu.iew.lsq.thread0: SQ size: 33, #stores occupied: 4
 749940: system.cpu.iew.lsq.thread0: Inserting load PC (0x7ffff7ddc927=>0x7ffff7ddc92b).(0=>1), idx:9 [sn:501]
 749940: system.cpu.iew.lsq.thread0: Inserting store PC (0x7ffff7ddc927=>0x7ffff7ddc92b).(2=>3), idx:15 [sn:503]
 749940: system.cpu.iew.lsq.thread0: Marking store as able to write back, PC (0x7ffff7ddc8cf=>0x7ffff7ddc8d3).(0=>1) [sn:459]
 749940: system.cpu.iew.lsq.thread0: LQ size: 33, #loads occupied: 4
 749940: system.cpu.iew.lsq.thread0: SQ size: 33, #stores occupied: 5
 750375: system.cpu.iew.lsq.thread0: Inserting load PC (0x7ffff7ddc92b=>0x7ffff7ddc932).(1=>2), idx:10 [sn:505]
 750375: system.cpu.iew.lsq.thread0: Inserting load PC (0x7ffff7ddc937=>0x7ffff7ddc93b).(0=>1), idx:11 [sn:510]
 750375: system.cpu.iew.lsq.thread0: Inserting store PC (0x7ffff7ddc937=>0x7ffff7ddc93b).(2=>3), idx:16 [sn:512]
 750375: system.cpu.iew.lsq.thread0: Executing load PC (0x7ffff7ddc90a=>0x7ffff7ddc90d).(0=>1), [sn:486]
 750375: system.cpu.iew.lsq.thread0: ToyLSQUnit read happening
 750375: system.cpu.iew.lsq.thread0: A
 750375: system.cpu.iew.lsq.thread0: B
 750375: system.cpu.iew.lsq.thread0: C
 750375: system.cpu.iew.lsq.thread0: Read called, load idx: 7, store idx: 15, storeHead: 11 addr: 0x2de50
 750375: system.cpu.iew.lsq.thread0: Doing memory access for inst [sn:486] PC (0x7ffff7ddc90a=>0x7ffff7ddc90d).(0=>1)
 750375: system.cpu.iew.lsq.thread0:    copying memData into memDataCopy, size: 486 [sn:8]
 750375: system.cpu.iew.lsq.thread0: Executing load PC (0x7ffff7ddc91b=>0x7ffff7ddc922).(1=>2), [sn:496]
 750375: system.cpu.iew.lsq.thread0: ToyLSQUnit read happening
 750375: system.cpu.iew.lsq.thread0: A
 750375: system.cpu.iew.lsq.thread0: B
 750375: system.cpu.iew.lsq.thread0: C
 750375: system.cpu.iew.lsq.thread0: Read called, load idx: 8, store idx: 15, storeHead: 11 addr: 0x2e9f8
 750375: system.cpu.iew.lsq.thread0: Doing memory access for inst [sn:496] PC (0x7ffff7ddc91b=>0x7ffff7ddc922).(1=>2)
 750375: system.cpu.iew.lsq.thread0:    copying memData into memDataCopy, size: 496 [sn:8]
 750375: system.cpu.iew.lsq.thread0: LQ size: 33, #loads occupied: 6
 750375: system.cpu.iew.lsq.thread0: SQ size: 33, #stores occupied: 6
 750810: system.cpu.iew.lsq.thread0: Executing load PC (0x7ffff7ddc92b=>0x7ffff7ddc932).(1=>2), [sn:505]
 750810: system.cpu.iew.lsq.thread0: ToyLSQUnit read happening
 750810: system.cpu.iew.lsq.thread0: A
 750810: system.cpu.iew.lsq.thread0: B
 750810: system.cpu.iew.lsq.thread0: C
 750810: system.cpu.iew.lsq.thread0: Read called, load idx: 10, store idx: 16, storeHead: 11 addr: 0x2e9f0
 750810: system.cpu.iew.lsq.thread0: Doing memory access for inst [sn:505] PC (0x7ffff7ddc92b=>0x7ffff7ddc932).(1=>2)
 750810: system.cpu.iew.lsq.thread0:    copying memData into memDataCopy, size: 505 [sn:8]
 750810: system.cpu.iew.lsq.thread0: LQ size: 33, #loads occupied: 6
 750810: system.cpu.iew.lsq.thread0: SQ size: 33, #stores occupied: 6
 784305: system.cpu.iew.lsq.thread0: Inserting load PC (0x7ffff7ddc93b=>0x7ffff7ddc942).(1=>2), idx:12 [sn:514]
 784305: system.cpu.iew.lsq.thread0: Inserting load PC (0x7ffff7ddc947=>0x7ffff7ddc94b).(0=>1), idx:13 [sn:519]
 784740: system.cpu.iew.lsq.thread0: Inserting store PC (0x7ffff7ddc947=>0x7ffff7ddc94b).(2=>3), idx:17 [sn:521]
 784740: system.cpu.iew.lsq.thread0: Inserting load PC (0x7ffff7ddc94b=>0x7ffff7ddc952).(1=>2), idx:14 [sn:523]
 784740: system.cpu.iew.lsq.thread0: Inserting load PC (0x7ffff7ddc957=>0x7ffff7ddc95b).(0=>1), idx:15 [sn:528]
 784740: system.cpu.iew.lsq.thread0: LQ size: 33, #loads occupied: 10
 784740: system.cpu.iew.lsq.thread0: SQ size: 33, #stores occupied: 7
 785175: system.cpu.iew.lsq.thread0: Inserting store PC (0x7ffff7ddc957=>0x7ffff7ddc95b).(2=>3), idx:18 [sn:530]
 785175: system.cpu.iew.lsq.thread0: Inserting load PC (0x7ffff7ddc95b=>0x7ffff7ddc962).(1=>2), idx:16 [sn:532]
 785175: system.cpu.iew.lsq.thread0: Executing load PC (0x7ffff7ddc93b=>0x7ffff7ddc942).(1=>2), [sn:514]
 785175: system.cpu.iew.lsq.thread0: ToyLSQUnit read happening
 785175: system.cpu.iew.lsq.thread0: A
 785175: system.cpu.iew.lsq.thread0: B
 785175: system.cpu.iew.lsq.thread0: C
 785175: system.cpu.iew.lsq.thread0: Read called, load idx: 12, store idx: 17, storeHead: 11 addr: 0x2ea00
 785175: system.cpu.iew.lsq.thread0: Forwarding from store idx 13 to load to addr 0x7ffff7ffda00
 785175: system.cpu.iew.lsq.thread0:    copying memData into memDataCopy, size: 514 [sn:8]
 785175: system.cpu.iew.lsq.thread0: LQ size: 33, #loads occupied: 11
 785175: system.cpu.iew.lsq.thread0: SQ size: 33, #stores occupied: 8
 785610: system.cpu.iew.lsq.thread0: Inserting load PC (0x7ffff7ddc967=>0x7ffff7ddc96b).(0=>1), idx:17 [sn:537]
 785610: system.cpu.iew.lsq.thread0: Inserting store PC (0x7ffff7ddc967=>0x7ffff7ddc96b).(2=>3), idx:19 [sn:539]
 785610: system.cpu.iew.lsq.thread0: Inserting load PC (0x7ffff7ddc96b=>0x7ffff7ddc972).(1=>2), idx:18 [sn:541]
 785610: system.cpu.iew.lsq.thread0: Executing load PC (0x7ffff7ddc94b=>0x7ffff7ddc952).(1=>2), [sn:523]
 785610: system.cpu.iew.lsq.thread0: ToyLSQUnit read happening
 785610: system.cpu.iew.lsq.thread0: A
 785610: system.cpu.iew.lsq.thread0: B
 785610: system.cpu.iew.lsq.thread0: C
 785610: system.cpu.iew.lsq.thread0: Read called, load idx: 14, store idx: 18, storeHead: 11 addr: 0x2ea08
 785610: system.cpu.iew.lsq.thread0: Doing memory access for inst [sn:523] PC (0x7ffff7ddc94b=>0x7ffff7ddc952).(1=>2)
 785610: system.cpu.iew.lsq.thread0:    copying memData into memDataCopy, size: 523 [sn:8]
 785610: system.cpu.iew.lsq.thread0: LQ size: 33, #loads occupied: 13
 785610: system.cpu.iew.lsq.thread0: SQ size: 33, #stores occupied: 9
 786045: system.cpu.iew.lsq.thread0: Inserting load PC (0x7ffff7ddc977=>0x7ffff7ddc97b).(0=>1), idx:19 [sn:546]
 786045: system.cpu.iew.lsq.thread0: Inserting store PC (0x7ffff7ddc977=>0x7ffff7ddc97b).(2=>3), idx:20 [sn:548]
 786045: system.cpu.iew.lsq.thread0: Executing load PC (0x7ffff7ddc947=>0x7ffff7ddc94b).(0=>1), [sn:519]
 786045: system.cpu.iew.lsq.thread0: ToyLSQUnit read happening
 786045: system.cpu.iew.lsq.thread0: A
 786045: system.cpu.iew.lsq.thread0: B
 786045: system.cpu.iew.lsq.thread0: C
 786045: system.cpu.iew.lsq.thread0: Read called, load idx: 13, store idx: 17, storeHead: 11 addr: 0x2de38
 786045: system.cpu.iew.lsq.thread0: Doing memory access for inst [sn:519] PC (0x7ffff7ddc947=>0x7ffff7ddc94b).(0=>1)
 786045: system.cpu.iew.lsq.thread0:    copying memData into memDataCopy, size: 519 [sn:8]
 786045: system.cpu.iew.lsq.thread0: Executing load PC (0x7ffff7ddc95b=>0x7ffff7ddc962).(1=>2), [sn:532]
 786045: system.cpu.iew.lsq.thread0: ToyLSQUnit read happening
 786045: system.cpu.iew.lsq.thread0: A
 786045: system.cpu.iew.lsq.thread0: B
 786045: system.cpu.iew.lsq.thread0: C
 786045: system.cpu.iew.lsq.thread0: Read called, load idx: 16, store idx: 19, storeHead: 11 addr: 0x2ea10
 786045: system.cpu.iew.lsq.thread0: Doing memory access for inst [sn:532] PC (0x7ffff7ddc95b=>0x7ffff7ddc962).(1=>2)
 786045: system.cpu.iew.lsq.thread0:    copying memData into memDataCopy, size: 532 [sn:8]
 786045: system.cpu.iew.lsq.thread0: LQ size: 33, #loads occupied: 14
 786045: system.cpu.iew.lsq.thread0: SQ size: 33, #stores occupied: 10
 786480: system.cpu.iew.lsq.thread0: Executing load PC (0x7ffff7ddc96b=>0x7ffff7ddc972).(1=>2), [sn:541]
 786480: system.cpu.iew.lsq.thread0: ToyLSQUnit read happening
 786480: system.cpu.iew.lsq.thread0: A
 786480: system.cpu.iew.lsq.thread0: B
 786480: system.cpu.iew.lsq.thread0: C
 786480: system.cpu.iew.lsq.thread0: Read called, load idx: 18, store idx: 20, storeHead: 11 addr: 0x2ea90
 786480: system.cpu.iew.lsq.thread0: Doing memory access for inst [sn:541] PC (0x7ffff7ddc96b=>0x7ffff7ddc972).(1=>2)
 786480: system.cpu.iew.lsq.thread0:    copying memData into memDataCopy, size: 541 [sn:8]
 786480: system.cpu.iew.lsq.thread0: LQ size: 33, #loads occupied: 14
 786480: system.cpu.iew.lsq.thread0: SQ size: 33, #stores occupied: 10
 787350: system.cpu.iew.lsq.thread0: Completing store [sn:247], idx:11, store head idx:12
 787350: system.cpu.iew.lsq.thread0: D-Cache: Writing back store idx:12 PC:(0x7ffff7ddcb23=>0x7ffff7ddcb27).(0=>1) to Addr:0x2ec30, data:0x20 [sn:392]
 787350: system.cpu.iew.lsq.thread0: LQ size: 33, #loads occupied: 14
 787350: system.cpu.iew.lsq.thread0: SQ size: 33, #stores occupied: 9
 787785: system.cpu.iew.lsq.thread0: Executing store PC (0x7ffff7ddc947=>0x7ffff7ddc94b).(2=>3) [sn:521]
 787785: system.cpu.iew.lsq.thread0: Doing write to store idx 17, addr 0x2de38 | storeHead:12 [sn:521]
 787785: system.cpu.iew.lsq.thread0: LQ size: 33, #loads occupied: 14
 787785: system.cpu.iew.lsq.thread0: SQ size: 33, #stores occupied: 9
 788220: system.cpu.iew.lsq.thread0: Executing load PC (0x7ffff7ddc927=>0x7ffff7ddc92b).(0=>1), [sn:501]
 788220: system.cpu.iew.lsq.thread0: ToyLSQUnit read happening
 788220: system.cpu.iew.lsq.thread0: A
 788220: system.cpu.iew.lsq.thread0: B
 788220: system.cpu.iew.lsq.thread0: C
 788220: system.cpu.iew.lsq.thread0: Read called, load idx: 9, store idx: 15, storeHead: 12 addr: 0x2de18
 788220: system.cpu.iew.lsq.thread0: Doing memory access for inst [sn:501] PC (0x7ffff7ddc927=>0x7ffff7ddc92b).(0=>1)
 788220: system.cpu.iew.lsq.thread0:    copying memData into memDataCopy, size: 501 [sn:8]
 788220: system.cpu.iew.lsq.thread0: LQ size: 33, #loads occupied: 14
 788220: system.cpu.iew.lsq.thread0: SQ size: 33, #stores occupied: 9
 789090: system.cpu.iew.lsq.thread0: Executing load PC (0x7ffff7ddc937=>0x7ffff7ddc93b).(0=>1), [sn:510]
 789090: system.cpu.iew.lsq.thread0: Load [sn:510] not executed from fault
 789090: system.cpu.iew.lsq.thread0: LQ size: 33, #loads occupied: 14
 789090: system.cpu.iew.lsq.thread0: SQ size: 33, #stores occupied: 9
 845205: system.cpu.iew.lsq.thread0: Executing load PC (0x7ffff7ddc927=>0x7ffff7ddc92b).(0=>1), [sn:501]
 845205: system.cpu.iew.lsq.thread0: ToyLSQUnit read happening
 845205: system.cpu.iew.lsq.thread0: A
 845205: system.cpu.iew.lsq.thread0: B
 845205: system.cpu.iew.lsq.thread0: C
 845205: system.cpu.iew.lsq.thread0: Read called, load idx: 9, store idx: 15, storeHead: 12 addr: 0x2de18
 845205: system.cpu.iew.lsq.thread0: Doing memory access for inst [sn:501] PC (0x7ffff7ddc927=>0x7ffff7ddc92b).(0=>1)
 845205: system.cpu.iew.lsq.thread0: LQ size: 33, #loads occupied: 14
 845205: system.cpu.iew.lsq.thread0: SQ size: 33, #stores occupied: 9
 846075: system.cpu.iew.lsq.thread0: LQ size: 33, #loads occupied: 14
 846075: system.cpu.iew.lsq.thread0: SQ size: 33, #stores occupied: 9
 846510: system.cpu.iew.lsq.thread0: LQ size: 33, #loads occupied: 14
 846510: system.cpu.iew.lsq.thread0: SQ size: 33, #stores occupied: 9
 846945: system.cpu.iew.lsq.thread0:    re-executing load sn:462
 846945: system.cpu.iew.lsq.thread0: ToyLSQUnit read happening
 846945: system.cpu.iew.lsq.thread0: A
 846945: system.cpu.iew.lsq.thread0: B
 846945: system.cpu.iew.lsq.thread0: C
 846945: system.cpu.iew.lsq.thread0: Read called, load idx: 6, store idx: 14, storeHead: 12 addr: 0x2de40
 846945: system.cpu.iew.lsq.thread0: Doing memory access for inst [sn:462] PC (0x7ffff7ddc8d7=>0x7ffff7ddc8da).(0=>1)
 846945: system.cpu.iew.lsq.thread0:    done re-executing load sn:462
0| orig: 6, reex: 48
1| orig: 0, reex: 34
2| orig: 0, reex: 161
3| orig: 0, reex: 4
4| orig: 0, reex: 0
5| orig: 0, reex: 0
6| orig: 0, reex: 0
7| orig: 0, reex: 0
~~~ different data
 846945: system.cpu.iew.lsq.thread0: Committing head load instruction, PC (0x7ffff7ddc8d7=>0x7ffff7ddc8da).(0=>1), [sn:462]
 846945: system.cpu.iew.lsq.thread0: LQ size: 33, #loads occupied: 13
 846945: system.cpu.iew.lsq.thread0: SQ size: 33, #stores occupied: 9
 847380: system.cpu.iew.lsq.thread0: Squashing until [sn:471]!(Loads:13 Stores:9)
 847380: system.cpu.iew.lsq.thread0: Load Instruction PC (0x7ffff7ddc977=>0x7ffff7ddc97b).(0=>1) squashed, [sn:546]
 847380: system.cpu.iew.lsq.thread0: Load Instruction PC (0x7ffff7ddc96b=>0x7ffff7ddc972).(1=>2) squashed, [sn:541]
 847380: system.cpu.iew.lsq.thread0: Load Instruction PC (0x7ffff7ddc967=>0x7ffff7ddc96b).(0=>1) squashed, [sn:537]
 847380: system.cpu.iew.lsq.thread0: Load Instruction PC (0x7ffff7ddc95b=>0x7ffff7ddc962).(1=>2) squashed, [sn:532]
 847380: system.cpu.iew.lsq.thread0: Load Instruction PC (0x7ffff7ddc957=>0x7ffff7ddc95b).(0=>1) squashed, [sn:528]
 847380: system.cpu.iew.lsq.thread0: Load Instruction PC (0x7ffff7ddc94b=>0x7ffff7ddc952).(1=>2) squashed, [sn:523]
 847380: system.cpu.iew.lsq.thread0: Load Instruction PC (0x7ffff7ddc947=>0x7ffff7ddc94b).(0=>1) squashed, [sn:519]
 847380: system.cpu.iew.lsq.thread0: Load Instruction PC (0x7ffff7ddc93b=>0x7ffff7ddc942).(1=>2) squashed, [sn:514]
 847380: system.cpu.iew.lsq.thread0: Load Instruction PC (0x7ffff7ddc937=>0x7ffff7ddc93b).(0=>1) squashed, [sn:510]
 847380: system.cpu.iew.lsq.thread0: Load Instruction PC (0x7ffff7ddc92b=>0x7ffff7ddc932).(1=>2) squashed, [sn:505]
 847380: system.cpu.iew.lsq.thread0: Load Instruction PC (0x7ffff7ddc927=>0x7ffff7ddc92b).(0=>1) squashed, [sn:501]
 847380: system.cpu.iew.lsq.thread0: Load Instruction PC (0x7ffff7ddc91b=>0x7ffff7ddc922).(1=>2) squashed, [sn:496]
 847380: system.cpu.iew.lsq.thread0: Load Instruction PC (0x7ffff7ddc90a=>0x7ffff7ddc90d).(0=>1) squashed, [sn:486]
 847380: system.cpu.iew.lsq.thread0: Store Instruction PC (0x7ffff7ddc977=>0x7ffff7ddc97b).(2=>3) squashed, idx:20 [sn:548]
 847380: system.cpu.iew.lsq.thread0: Store Instruction PC (0x7ffff7ddc967=>0x7ffff7ddc96b).(2=>3) squashed, idx:19 [sn:539]
 847380: system.cpu.iew.lsq.thread0: Store Instruction PC (0x7ffff7ddc957=>0x7ffff7ddc95b).(2=>3) squashed, idx:18 [sn:530]
 847380: system.cpu.iew.lsq.thread0: Store Instruction PC (0x7ffff7ddc947=>0x7ffff7ddc94b).(2=>3) squashed, idx:17 [sn:521]
 847380: system.cpu.iew.lsq.thread0: Store Instruction PC (0x7ffff7ddc937=>0x7ffff7ddc93b).(2=>3) squashed, idx:16 [sn:512]
 847380: system.cpu.iew.lsq.thread0: Store Instruction PC (0x7ffff7ddc927=>0x7ffff7ddc92b).(2=>3) squashed, idx:15 [sn:503]
 847380: system.cpu.iew.lsq.thread0: Store Instruction PC (0x7ffff7ddc902=>0x7ffff7ddc906).(0=>1) squashed, idx:14 [sn:483]
 847380: system.cpu.iew.lsq.thread0: LQ size: 33, #loads occupied: 0
 847380: system.cpu.iew.lsq.thread0: SQ size: 33, #stores occupied: 2
 847815: system.cpu.iew.lsq.thread0: Squashing until [sn:462]!(Loads:0 Stores:2)
 847815: system.cpu.iew.lsq.thread0: LQ size: 33, #loads occupied: 0
 847815: system.cpu.iew.lsq.thread0: SQ size: 33, #stores occupied: 2
 854775: system.cpu.iew.lsq.thread0: Inserting load PC (0x7ffff7ddc8d7=>0x7ffff7ddc8da).(0=>1), idx:7 [sn:549]
 855210: system.cpu.iew.lsq.thread0: Executing load PC (0x7ffff7ddc8d7=>0x7ffff7ddc8da).(0=>1), [sn:549]
 855210: system.cpu.iew.lsq.thread0: ToyLSQUnit read happening
 855210: system.cpu.iew.lsq.thread0: A
 855210: system.cpu.iew.lsq.thread0: B
 855210: system.cpu.iew.lsq.thread0: C
 855210: system.cpu.iew.lsq.thread0: Read called, load idx: 7, store idx: 14, storeHead: 12 addr: 0x2de40
 855210: system.cpu.iew.lsq.thread0: Doing memory access for inst [sn:549] PC (0x7ffff7ddc8d7=>0x7ffff7ddc8da).(0=>1)
 855210: system.cpu.iew.lsq.thread0:    copying memData into memDataCopy, size: 549 [sn:8]
 855210: system.cpu.iew.lsq.thread0: LQ size: 33, #loads occupied: 1
 855210: system.cpu.iew.lsq.thread0: SQ size: 33, #stores occupied: 2
 856080: system.cpu.iew.lsq.thread0: Inserting store PC (0x7ffff7ddc902=>0x7ffff7ddc906).(0=>1), idx:14 [sn:570]
 856080: system.cpu.iew.lsq.thread0: LQ size: 33, #loads occupied: 1
 856080: system.cpu.iew.lsq.thread0: SQ size: 33, #stores occupied: 3
 856515: system.cpu.iew.lsq.thread0: Inserting load PC (0x7ffff7ddc90a=>0x7ffff7ddc90d).(0=>1), idx:8 [sn:573]
 856515: system.cpu.iew.lsq.thread0: LQ size: 33, #loads occupied: 2
 856515: system.cpu.iew.lsq.thread0: SQ size: 33, #stores occupied: 3
 856950: system.cpu.iew.lsq.thread0: Inserting load PC (0x7ffff7ddc91b=>0x7ffff7ddc922).(1=>2), idx:9 [sn:583]
 856950: system.cpu.iew.lsq.thread0: Inserting load PC (0x7ffff7ddc927=>0x7ffff7ddc92b).(0=>1), idx:10 [sn:588]
 856950: system.cpu.iew.lsq.thread0: LQ size: 33, #loads occupied: 4
 856950: system.cpu.iew.lsq.thread0: SQ size: 33, #stores occupied: 3
 857385: system.cpu.iew.lsq.thread0: Inserting store PC (0x7ffff7ddc927=>0x7ffff7ddc92b).(2=>3), idx:15 [sn:590]
 857385: system.cpu.iew.lsq.thread0: Inserting load PC (0x7ffff7ddc92b=>0x7ffff7ddc932).(1=>2), idx:11 [sn:592]
 857385: system.cpu.iew.lsq.thread0: Executing load PC (0x7ffff7ddc90a=>0x7ffff7ddc90d).(0=>1), [sn:573]
 857385: system.cpu.iew.lsq.thread0: ToyLSQUnit read happening
 857385: system.cpu.iew.lsq.thread0: A
 857385: system.cpu.iew.lsq.thread0: B
 857385: system.cpu.iew.lsq.thread0: C
 857385: system.cpu.iew.lsq.thread0: Read called, load idx: 8, store idx: 15, storeHead: 12 addr: 0x2de50
 857385: system.cpu.iew.lsq.thread0: Doing memory access for inst [sn:573] PC (0x7ffff7ddc90a=>0x7ffff7ddc90d).(0=>1)
 857385: system.cpu.iew.lsq.thread0:    copying memData into memDataCopy, size: 573 [sn:8]
 857385: system.cpu.iew.lsq.thread0:    re-executing load sn:549
 857385: system.cpu.iew.lsq.thread0: ToyLSQUnit read happening
 857385: system.cpu.iew.lsq.thread0: A
 857385: system.cpu.iew.lsq.thread0: B
 857385: system.cpu.iew.lsq.thread0: C
 857385: system.cpu.iew.lsq.thread0: Read called, load idx: 7, store idx: 14, storeHead: 12 addr: 0x2de40
 857385: system.cpu.iew.lsq.thread0: Doing memory access for inst [sn:549] PC (0x7ffff7ddc8d7=>0x7ffff7ddc8da).(0=>1)
 857385: system.cpu.iew.lsq.thread0:    done re-executing load sn:549
0| orig: 6, reex: 6
1| orig: 0, reex: 0
2| orig: 0, reex: 0
3| orig: 0, reex: 0
4| orig: 0, reex: 0
5| orig: 0, reex: 0
6| orig: 0, reex: 0
7| orig: 0, reex: 0
~~~ same data
 857385: system.cpu.iew.lsq.thread0: Committing head load instruction, PC (0x7ffff7ddc8d7=>0x7ffff7ddc8da).(0=>1), [sn:549]
 857385: system.cpu.iew.lsq.thread0: LQ size: 33, #loads occupied: 4
 857385: system.cpu.iew.lsq.thread0: SQ size: 33, #stores occupied: 4
 857820: system.cpu.iew.lsq.thread0: Squashing until [sn:558]!(Loads:4 Stores:4)
 857820: system.cpu.iew.lsq.thread0: Load Instruction PC (0x7ffff7ddc92b=>0x7ffff7ddc932).(1=>2) squashed, [sn:592]
 857820: system.cpu.iew.lsq.thread0: Load Instruction PC (0x7ffff7ddc927=>0x7ffff7ddc92b).(0=>1) squashed, [sn:588]
 857820: system.cpu.iew.lsq.thread0: Load Instruction PC (0x7ffff7ddc91b=>0x7ffff7ddc922).(1=>2) squashed, [sn:583]
 857820: system.cpu.iew.lsq.thread0: Load Instruction PC (0x7ffff7ddc90a=>0x7ffff7ddc90d).(0=>1) squashed, [sn:573]
 857820: system.cpu.iew.lsq.thread0: Store Instruction PC (0x7ffff7ddc927=>0x7ffff7ddc92b).(2=>3) squashed, idx:15 [sn:590]
 857820: system.cpu.iew.lsq.thread0: Store Instruction PC (0x7ffff7ddc902=>0x7ffff7ddc906).(0=>1) squashed, idx:14 [sn:570]
 857820: system.cpu.iew.lsq.thread0: LQ size: 33, #loads occupied: 0
 857820: system.cpu.iew.lsq.thread0: SQ size: 33, #stores occupied: 2
 860430: system.cpu.iew.lsq.thread0: LQ size: 33, #loads occupied: 0
 860430: system.cpu.iew.lsq.thread0: SQ size: 33, #stores occupied: 2
 860865: system.cpu.iew.lsq.thread0: LQ size: 33, #loads occupied: 0
 860865: system.cpu.iew.lsq.thread0: SQ size: 33, #stores occupied: 2
 862170: system.cpu.iew.lsq.thread0: Inserting store PC (0x7ffff7ddc8cf=>0x7ffff7ddc8d3).(0=>1), idx:14 [sn:638]
 862170: system.cpu.iew.lsq.thread0: Inserting load PC (0x7ffff7ddc8d7=>0x7ffff7ddc8da).(0=>1), idx:8 [sn:641]
 862605: system.cpu.iew.lsq.thread0: LQ size: 33, #loads occupied: 1
 862605: system.cpu.iew.lsq.thread0: SQ size: 33, #stores occupied: 3
 863040: system.cpu.iew.lsq.thread0: LQ size: 33, #loads occupied: 1
 863040: system.cpu.iew.lsq.thread0: SQ size: 33, #stores occupied: 3
 863475: system.cpu.iew.lsq.thread0: Executing store PC (0x7ffff7ddc8cf=>0x7ffff7ddc8d3).(0=>1) [sn:638]
 863475: system.cpu.iew.lsq.thread0: Doing write to store idx 14, addr 0x2ea08 | storeHead:12 [sn:638]
 863475: system.cpu.iew.lsq.thread0: Executing load PC (0x7ffff7ddc8d7=>0x7ffff7ddc8da).(0=>1), [sn:641]
 863475: system.cpu.iew.lsq.thread0: ToyLSQUnit read happening
 863475: system.cpu.iew.lsq.thread0: A
 863475: system.cpu.iew.lsq.thread0: B
 863475: system.cpu.iew.lsq.thread0: C
 863475: system.cpu.iew.lsq.thread0: Read called, load idx: 8, store idx: 15, storeHead: 12 addr: 0x2de50
 863475: system.cpu.iew.lsq.thread0: Doing memory access for inst [sn:641] PC (0x7ffff7ddc8d7=>0x7ffff7ddc8da).(0=>1)
 863475: system.cpu.iew.lsq.thread0:    copying memData into memDataCopy, size: 641 [sn:8]
 863475: system.cpu.iew.lsq.thread0: LQ size: 33, #loads occupied: 1
 863475: system.cpu.iew.lsq.thread0: SQ size: 33, #stores occupied: 3
 863910: system.cpu.iew.lsq.thread0: Inserting store PC (0x7ffff7ddc902=>0x7ffff7ddc906).(0=>1), idx:15 [sn:662]
[...]
3120690: system.cpu.iew.lsq.thread0: LQ size: 33, #loads occupied: 16
3120690: system.cpu.iew.lsq.thread0: SQ size: 33, #stores occupied: 0
3121125: system.cpu.iew.lsq.thread0: Inserting load PC (0x7ffff7df2e68=>0x7ffff7df2e6c).(0=>1), idx:14 [sn:7522]
3121125: system.cpu.iew.lsq.thread0: Inserting load PC (0x7ffff7df2e74=>0x7ffff7df2e77).(0=>1), idx:15 [sn:7526]
3121125: system.cpu.iew.lsq.thread0: LQ size: 33, #loads occupied: 18
3121125: system.cpu.iew.lsq.thread0: SQ size: 33, #stores occupied: 0
3121560: system.cpu.iew.lsq.thread0: Executing load PC (0x7ffff7df2e74=>0x7ffff7df2e77).(0=>1), [sn:7505]
3121560: system.cpu.iew.lsq.thread0: ToyLSQUnit read happening
3121560: system.cpu.iew.lsq.thread0: A
3121560: system.cpu.iew.lsq.thread0: B
3121560: system.cpu.iew.lsq.thread0: C
3121560: system.cpu.iew.lsq.thread0: Read called, load idx: 12, store idx: -1, storeHead: 18 addr: 0x30ec0
3121560: system.cpu.iew.lsq.thread0: Doing memory access for inst [sn:7505] PC (0x7ffff7df2e74=>0x7ffff7df2e77).(0=>1)
3121560: system.cpu.iew.lsq.thread0:    copying memData into memDataCopy, size: 7505 [sn:8]
3121560: system.cpu.iew.lsq.thread0: Executing load PC (0x7ffff7df2e68=>0x7ffff7df2e6c).(0=>1), [sn:7522]
3121560: system.cpu.iew.lsq.thread0: ToyLSQUnit read happening
3121560: system.cpu.iew.lsq.thread0: A
3121560: system.cpu.iew.lsq.thread0: B
3121560: system.cpu.iew.lsq.thread0: C
3121560: system.cpu.iew.lsq.thread0: Read called, load idx: 14, store idx: -1, storeHead: 18 addr: 0x30ec8
3121560: system.cpu.iew.lsq.thread0: Doing memory access for inst [sn:7522] PC (0x7ffff7df2e68=>0x7ffff7df2e6c).(0=>1)
3121560: system.cpu.iew.lsq.thread0:    copying memData into memDataCopy, size: 7522 [sn:8]
3121560: system.cpu.iew.lsq.thread0: LQ size: 33, #loads occupied: 18
3121560: system.cpu.iew.lsq.thread0: SQ size: 33, #stores occupied: 0
3121995: system.cpu.iew.lsq.thread0: Inserting load PC (0x7ffff7df2e5a=>0x7ffff7df2e5e).(0=>1), idx:16 [sn:7538]
3121995: system.cpu.iew.lsq.thread0: Executing load PC (0x7ffff7df2e5a=>0x7ffff7df2e5e).(0=>1), [sn:7496]
3121995: system.cpu.iew.lsq.thread0: ToyLSQUnit read happening
3121995: system.cpu.iew.lsq.thread0: A
3121995: system.cpu.iew.lsq.thread0: B
3121995: system.cpu.iew.lsq.thread0: C
3121995: system.cpu.iew.lsq.thread0: Read called, load idx: 10, store idx: -1, storeHead: 18 addr: 0x278b0
3121995: system.cpu.iew.lsq.thread0: Doing memory access for inst [sn:7496] PC (0x7ffff7df2e5a=>0x7ffff7df2e5e).(0=>1)
3121995: system.cpu.iew.lsq.thread0:    copying memData into memDataCopy, size: 7496 [sn:4]
3121995: system.cpu.iew.lsq.thread0: LQ size: 33, #loads occupied: 19
3121995: system.cpu.iew.lsq.thread0: SQ size: 33, #stores occupied: 0
3122430: system.cpu.iew.lsq.thread0: Inserting load PC (0x7ffff7df2e68=>0x7ffff7df2e6c).(0=>1), idx:17 [sn:7543]
3122430: system.cpu.iew.lsq.thread0: Inserting load PC (0x7ffff7df2e74=>0x7ffff7df2e77).(0=>1), idx:18 [sn:7547]
3122430: system.cpu.iew.lsq.thread0: Executing load PC (0x7ffff7df2e74=>0x7ffff7df2e77).(0=>1), [sn:7526]
3122430: system.cpu.iew.lsq.thread0: ToyLSQUnit read happening
3122430: system.cpu.iew.lsq.thread0: A
3122430: system.cpu.iew.lsq.thread0: B
3122430: system.cpu.iew.lsq.thread0: C
3122430: system.cpu.iew.lsq.thread0: Read called, load idx: 15, store idx: -1, storeHead: 18 addr: 0x30ed0
3122430: system.cpu.iew.lsq.thread0: Doing memory access for inst [sn:7526] PC (0x7ffff7df2e74=>0x7ffff7df2e77).(0=>1)
3122430: system.cpu.iew.lsq.thread0:    copying memData into memDataCopy, size: 7526 [sn:8]
3122430: system.cpu.iew.lsq.thread0: LQ size: 33, #loads occupied: 21
3122430: system.cpu.iew.lsq.thread0: SQ size: 33, #stores occupied: 0
3122865: system.cpu.iew.lsq.thread0: Executing load PC (0x7ffff7df2e68=>0x7ffff7df2e6c).(0=>1), [sn:7543]
3122865: system.cpu.iew.lsq.thread0: ToyLSQUnit read happening
3122865: system.cpu.iew.lsq.thread0: A
3122865: system.cpu.iew.lsq.thread0: B
3122865: system.cpu.iew.lsq.thread0: C
3122865: system.cpu.iew.lsq.thread0: Read called, load idx: 17, store idx: -1, storeHead: 18 addr: 0x30ed8
3122865: system.cpu.iew.lsq.thread0: Doing memory access for inst [sn:7543] PC (0x7ffff7df2e68=>0x7ffff7df2e6c).(0=>1)
3122865: system.cpu.iew.lsq.thread0:    copying memData into memDataCopy, size: 7543 [sn:8]
3122865: system.cpu.iew.lsq.thread0: LQ size: 33, #loads occupied: 21
3122865: system.cpu.iew.lsq.thread0: SQ size: 33, #stores occupied: 0
3123300: system.cpu.iew.lsq.thread0: Inserting load PC (0x7ffff7df2e5a=>0x7ffff7df2e5e).(0=>1), idx:19 [sn:7559]
3123300: system.cpu.iew.lsq.thread0: LQ size: 33, #loads occupied: 22
3123300: system.cpu.iew.lsq.thread0: SQ size: 33, #stores occupied: 0
3123735: system.cpu.iew.lsq.thread0: Executing load PC (0x7ffff7df2e74=>0x7ffff7df2e77).(0=>1), [sn:7547]
3123735: system.cpu.iew.lsq.thread0: ToyLSQUnit read happening
3123735: system.cpu.iew.lsq.thread0: A
3123735: system.cpu.iew.lsq.thread0: B
3123735: system.cpu.iew.lsq.thread0: C
3123735: system.cpu.iew.lsq.thread0: Read called, load idx: 18, store idx: -1, storeHead: 18 addr: 0x30ee0
3123735: system.cpu.iew.lsq.thread0: Doing memory access for inst [sn:7547] PC (0x7ffff7df2e74=>0x7ffff7df2e77).(0=>1)
3123735: system.cpu.iew.lsq.thread0:    copying memData into memDataCopy, size: 7547 [sn:8]
3123735: system.cpu.iew.lsq.thread0: LQ size: 33, #loads occupied: 22
3123735: system.cpu.iew.lsq.thread0: SQ size: 33, #stores occupied: 0
3124170: system.cpu.iew.lsq.thread0: Inserting load PC (0x7ffff7df2e68=>0x7ffff7df2e6c).(0=>1), idx:20 [sn:7564]
3124605: system.cpu.iew.lsq.thread0: Inserting load PC (0x7ffff7df2e74=>0x7ffff7df2e77).(0=>1), idx:21 [sn:7568]
3124605: system.cpu.iew.lsq.thread0: Executing load PC (0x7ffff7df2e68=>0x7ffff7df2e6c).(0=>1), [sn:7564]
3124605: system.cpu.iew.lsq.thread0: ToyLSQUnit read happening
3124605: system.cpu.iew.lsq.thread0: A
3124605: system.cpu.iew.lsq.thread0: B
3124605: system.cpu.iew.lsq.thread0: C
3124605: system.cpu.iew.lsq.thread0: Read called, load idx: 20, store idx: -1, storeHead: 18 addr: 0x30ee8
3124605: system.cpu.iew.lsq.thread0: Doing memory access for inst [sn:7564] PC (0x7ffff7df2e68=>0x7ffff7df2e6c).(0=>1)
3124605: system.cpu.iew.lsq.thread0:    copying memData into memDataCopy, size: 7564 [sn:8]
3124605: system.cpu.iew.lsq.thread0: LQ size: 33, #loads occupied: 24
3124605: system.cpu.iew.lsq.thread0: SQ size: 33, #stores occupied: 0
3125040: system.cpu.iew.lsq.thread0: LQ size: 33, #loads occupied: 24
3125040: system.cpu.iew.lsq.thread0: SQ size: 33, #stores occupied: 0
3125475: system.cpu.iew.lsq.thread0: Executing load PC (0x7ffff7df2e74=>0x7ffff7df2e77).(0=>1), [sn:7568]
3125475: system.cpu.iew.lsq.thread0: ToyLSQUnit read happening
3125475: system.cpu.iew.lsq.thread0: A
3125475: system.cpu.iew.lsq.thread0: B
3125475: system.cpu.iew.lsq.thread0: C
3125475: system.cpu.iew.lsq.thread0: Read called, load idx: 21, store idx: -1, storeHead: 18 addr: 0x30ef0
3125475: system.cpu.iew.lsq.thread0: Doing memory access for inst [sn:7568] PC (0x7ffff7df2e74=>0x7ffff7df2e77).(0=>1)
3125475: system.cpu.iew.lsq.thread0:    copying memData into memDataCopy, size: 7568 [sn:8]
3125475: system.cpu.iew.lsq.thread0: LQ size: 33, #loads occupied: 24
3125475: system.cpu.iew.lsq.thread0: SQ size: 33, #stores occupied: 0
3176370: system.cpu.iew.lsq.thread0: Executing load PC (0x7ffff7df2e5a=>0x7ffff7df2e5e).(0=>1), [sn:7496]
3176370: system.cpu.iew.lsq.thread0: ToyLSQUnit read happening
3176370: system.cpu.iew.lsq.thread0: A
3176370: system.cpu.iew.lsq.thread0: B
3176370: system.cpu.iew.lsq.thread0: C
3176370: system.cpu.iew.lsq.thread0: Read called, load idx: 10, store idx: -1, storeHead: 18 addr: 0x278b0
3176370: system.cpu.iew.lsq.thread0: Doing memory access for inst [sn:7496] PC (0x7ffff7df2e5a=>0x7ffff7df2e5e).(0=>1)
3176370: system.cpu.iew.lsq.thread0: Executing load PC (0x7ffff7df2e68=>0x7ffff7df2e6c).(0=>1), [sn:7522]
3176370: system.cpu.iew.lsq.thread0: ToyLSQUnit read happening
3176370: system.cpu.iew.lsq.thread0: A
3176370: system.cpu.iew.lsq.thread0: B
3176370: system.cpu.iew.lsq.thread0: C
3176370: system.cpu.iew.lsq.thread0: Read called, load idx: 14, store idx: -1, storeHead: 18 addr: 0x30ec8
3176370: system.cpu.iew.lsq.thread0: Doing memory access for inst [sn:7522] PC (0x7ffff7df2e68=>0x7ffff7df2e6c).(0=>1)
3176370: system.cpu.iew.lsq.thread0: Executing load PC (0x7ffff7df2e74=>0x7ffff7df2e77).(0=>1), [sn:7526]
3176370: system.cpu.iew.lsq.thread0: ToyLSQUnit read happening
3176370: system.cpu.iew.lsq.thread0: A
3176370: system.cpu.iew.lsq.thread0: B
3176370: system.cpu.iew.lsq.thread0: C
3176370: system.cpu.iew.lsq.thread0: Read called, load idx: 15, store idx: -1, storeHead: 18 addr: 0x30ed0
3176370: system.cpu.iew.lsq.thread0: Doing memory access for inst [sn:7526] PC (0x7ffff7df2e74=>0x7ffff7df2e77).(0=>1)
3176370: system.cpu.iew.lsq.thread0: Found possible load violation at addr: 0x7fffffffeed between instructions [sn:7526] and [sn:7543]
3176370: system.cpu.iew.lsq.thread0: Executing load PC (0x7ffff7df2e68=>0x7ffff7df2e6c).(0=>1), [sn:7543]
3176370: system.cpu.iew.lsq.thread0: ToyLSQUnit read happening
3176370: system.cpu.iew.lsq.thread0: A
3176370: system.cpu.iew.lsq.thread0: B
3176370: system.cpu.iew.lsq.thread0: C
3176370: system.cpu.iew.lsq.thread0: Read called, load idx: 17, store idx: -1, storeHead: 18 addr: 0x30ed8
3176370: system.cpu.iew.lsq.thread0: Doing memory access for inst [sn:7543] PC (0x7ffff7df2e68=>0x7ffff7df2e6c).(0=>1)
3176370: system.cpu.iew.lsq.thread0: LQ size: 33, #loads occupied: 24
3176370: system.cpu.iew.lsq.thread0: SQ size: 33, #stores occupied: 0
3176805: system.cpu.iew.lsq.thread0: Executing load PC (0x7ffff7df2e74=>0x7ffff7df2e77).(0=>1), [sn:7547]
3176805: system.cpu.iew.lsq.thread0: ToyLSQUnit read happening
3176805: system.cpu.iew.lsq.thread0: A
3176805: system.cpu.iew.lsq.thread0: B
3176805: system.cpu.iew.lsq.thread0: C
3176805: system.cpu.iew.lsq.thread0: Read called, load idx: 18, store idx: -1, storeHead: 18 addr: 0x30ee0
3176805: system.cpu.iew.lsq.thread0: Doing memory access for inst [sn:7547] PC (0x7ffff7df2e74=>0x7ffff7df2e77).(0=>1)
3176805: system.cpu.iew.lsq.thread0: Found possible load violation at addr: 0x7fffffffeee between instructions [sn:7547] and [sn:7564]
3176805: system.cpu.iew.lsq.thread0: Executing load PC (0x7ffff7df2e68=>0x7ffff7df2e6c).(0=>1), [sn:7564]
3176805: system.cpu.iew.lsq.thread0: ToyLSQUnit read happening
3176805: system.cpu.iew.lsq.thread0: A
3176805: system.cpu.iew.lsq.thread0: B
3176805: system.cpu.iew.lsq.thread0: C
3176805: system.cpu.iew.lsq.thread0: Read called, load idx: 20, store idx: -1, storeHead: 18 addr: 0x30ee8
3176805: system.cpu.iew.lsq.thread0: Doing memory access for inst [sn:7564] PC (0x7ffff7df2e68=>0x7ffff7df2e6c).(0=>1)
3176805: system.cpu.iew.lsq.thread0: Executing load PC (0x7ffff7df2e74=>0x7ffff7df2e77).(0=>1), [sn:7568]
3176805: system.cpu.iew.lsq.thread0: ToyLSQUnit read happening
3176805: system.cpu.iew.lsq.thread0: A
3176805: system.cpu.iew.lsq.thread0: B
3176805: system.cpu.iew.lsq.thread0: C
3176805: system.cpu.iew.lsq.thread0: Read called, load idx: 21, store idx: -1, storeHead: 18 addr: 0x30ef0
3176805: system.cpu.iew.lsq.thread0: Doing memory access for inst [sn:7568] PC (0x7ffff7df2e74=>0x7ffff7df2e77).(0=>1)
3176805: system.cpu.iew.lsq.thread0: LQ size: 33, #loads occupied: 24
3176805: system.cpu.iew.lsq.thread0: SQ size: 33, #stores occupied: 0
3177240: system.cpu.iew.lsq.thread0: LQ size: 33, #loads occupied: 24
3177240: system.cpu.iew.lsq.thread0: SQ size: 33, #stores occupied: 0
3177675: system.cpu.iew.lsq.thread0:    re-executing load sn:7378
3177675: system.cpu.iew.lsq.thread0: ToyLSQUnit read happening
3177675: system.cpu.iew.lsq.thread0: A
3177675: system.cpu.iew.lsq.thread0: B
3177675: system.cpu.iew.lsq.thread0: C
3177675: system.cpu.iew.lsq.thread0: Read called, load idx: 31, store idx: -1, storeHead: 18 addr: 0x14f90
3177675: system.cpu.iew.lsq.thread0: Doing memory access for inst [sn:7378] PC (0x7ffff7df2e5a=>0x7ffff7df2e5e).(0=>1)
3177675: system.cpu.iew.lsq.thread0:    done re-executing load sn:7378
0| orig: 11, reex: 144
1| orig: 72, reex: 164
2| orig: 139, reex: 40
3| orig: 149, reex: 4
~~~ different data
3177675: system.cpu.iew.lsq.thread0: Committing head load instruction, PC (0x7ffff7df2e5a=>0x7ffff7df2e5e).(0=>1), [sn:7378]
3177675: system.cpu.iew.lsq.thread0: LQ size: 33, #loads occupied: 23
3177675: system.cpu.iew.lsq.thread0: SQ size: 33, #stores occupied: 0
3178110: system.cpu.iew.lsq.thread0: LQ size: 33, #loads occupied: 23
3178110: system.cpu.iew.lsq.thread0: SQ size: 33, #stores occupied: 0
3178545: system.cpu.iew.lsq.thread0: Squashing until [sn:7378]!(Loads:23 Stores:0)
3178545: system.cpu.iew.lsq.thread0: Load Instruction PC (0x7ffff7df2e74=>0x7ffff7df2e77).(0=>1) squashed, [sn:7568]
3178545: system.cpu.iew.lsq.thread0: Load Instruction PC (0x7ffff7df2e68=>0x7ffff7df2e6c).(0=>1) squashed, [sn:7564]
3178545: system.cpu.iew.lsq.thread0: Load Instruction PC (0x7ffff7df2e5a=>0x7ffff7df2e5e).(0=>1) squashed, [sn:7559]
3178545: system.cpu.iew.lsq.thread0: Load Instruction PC (0x7ffff7df2e74=>0x7ffff7df2e77).(0=>1) squashed, [sn:7547]
3178545: system.cpu.iew.lsq.thread0: Load Instruction PC (0x7ffff7df2e68=>0x7ffff7df2e6c).(0=>1) squashed, [sn:7543]
3178545: system.cpu.iew.lsq.thread0: Load Instruction PC (0x7ffff7df2e5a=>0x7ffff7df2e5e).(0=>1) squashed, [sn:7538]
3178545: system.cpu.iew.lsq.thread0: Load Instruction PC (0x7ffff7df2e74=>0x7ffff7df2e77).(0=>1) squashed, [sn:7526]
3178545: system.cpu.iew.lsq.thread0: Load Instruction PC (0x7ffff7df2e68=>0x7ffff7df2e6c).(0=>1) squashed, [sn:7522]
3178545: system.cpu.iew.lsq.thread0: Load Instruction PC (0x7ffff7df2e5a=>0x7ffff7df2e5e).(0=>1) squashed, [sn:7517]
3178545: system.cpu.iew.lsq.thread0: Load Instruction PC (0x7ffff7df2e74=>0x7ffff7df2e77).(0=>1) squashed, [sn:7505]
3178545: system.cpu.iew.lsq.thread0: Load Instruction PC (0x7ffff7df2e68=>0x7ffff7df2e6c).(0=>1) squashed, [sn:7501]
3178545: system.cpu.iew.lsq.thread0: Load Instruction PC (0x7ffff7df2e5a=>0x7ffff7df2e5e).(0=>1) squashed, [sn:7496]
3178545: system.cpu.iew.lsq.thread0: Load Instruction PC (0x7ffff7df2e74=>0x7ffff7df2e77).(0=>1) squashed, [sn:7484]
3178545: system.cpu.iew.lsq.thread0: Load Instruction PC (0x7ffff7df2e68=>0x7ffff7df2e6c).(0=>1) squashed, [sn:7480]
3178545: system.cpu.iew.lsq.thread0: Load Instruction PC (0x7ffff7df2e5a=>0x7ffff7df2e5e).(0=>1) squashed, [sn:7475]
3178545: system.cpu.iew.lsq.thread0: Load Instruction PC (0x7ffff7df2e74=>0x7ffff7df2e77).(0=>1) squashed, [sn:7463]
3178545: system.cpu.iew.lsq.thread0: Load Instruction PC (0x7ffff7df2e68=>0x7ffff7df2e6c).(0=>1) squashed, [sn:7459]
3178545: system.cpu.iew.lsq.thread0: Load Instruction PC (0x7ffff7df2e5a=>0x7ffff7df2e5e).(0=>1) squashed, [sn:7454]
3178545: system.cpu.iew.lsq.thread0: Load Instruction PC (0x7ffff7df2e74=>0x7ffff7df2e77).(0=>1) squashed, [sn:7425]
3178545: system.cpu.iew.lsq.thread0: Load Instruction PC (0x7ffff7df2e68=>0x7ffff7df2e6c).(0=>1) squashed, [sn:7421]
3178545: system.cpu.iew.lsq.thread0: Load Instruction PC (0x7ffff7df2e5a=>0x7ffff7df2e5e).(0=>1) squashed, [sn:7416]
3178545: system.cpu.iew.lsq.thread0: Load Instruction PC (0x7ffff7df2e74=>0x7ffff7df2e77).(0=>1) squashed, [sn:7387]
3178545: system.cpu.iew.lsq.thread0: Load Instruction PC (0x7ffff7df2e68=>0x7ffff7df2e6c).(0=>1) squashed, [sn:7383]
3178545: system.cpu.iew.lsq.thread0: LQ size: 33, #loads occupied: 0
3178545: system.cpu.iew.lsq.thread0: SQ size: 33, #stores occupied: 0
3191160: system.cpu.iew.lsq.thread0: Inserting load PC (0x7ffff7df2e5a=>0x7ffff7df2e5e).(0=>1), idx:32 [sn:7613]
3191160: system.cpu.iew.lsq.thread0: Inserting load PC (0x7ffff7df2e68=>0x7ffff7df2e6c).(0=>1), idx:0 [sn:7618]
3191595: system.cpu.iew.lsq.thread0: Executing load PC (0x7ffff7df2e5a=>0x7ffff7df2e5e).(0=>1), [sn:7613]
3191595: system.cpu.iew.lsq.thread0: Load [sn:7613] not executed from fault
3191595: system.cpu.iew.lsq.thread0: Executing load PC (0x7ffff7df2e68=>0x7ffff7df2e6c).(0=>1), [sn:7618]
3191595: system.cpu.iew.lsq.thread0: ToyLSQUnit read happening
3191595: system.cpu.iew.lsq.thread0: A
3191595: system.cpu.iew.lsq.thread0: B
3191595: system.cpu.iew.lsq.thread0: C
3191595: system.cpu.iew.lsq.thread0: Read called, load idx: 0, store idx: -1, storeHead: 18 addr: 0x30e78
3191595: system.cpu.iew.lsq.thread0: Doing memory access for inst [sn:7618] PC (0x7ffff7df2e68=>0x7ffff7df2e6c).(0=>1)
3191595: system.cpu.iew.lsq.thread0:    copying memData into memDataCopy, size: 7618 [sn:8]
3191595: system.cpu.iew.lsq.thread0: LQ size: 33, #loads occupied: 2
3191595: system.cpu.iew.lsq.thread0: SQ size: 33, #stores occupied: 0
3192030: system.cpu.iew.lsq.thread0: Inserting load PC (0x7ffff7df2e74=>0x7ffff7df2e77).(0=>1), idx:1 [sn:7622]
3192465: system.cpu.iew.lsq.thread0: Inserting load PC (0x7ffff7df2e5a=>0x7ffff7df2e5e).(0=>1), idx:2 [sn:7634]
3192465: system.cpu.iew.lsq.thread0: LQ size: 33, #loads occupied: 4
3192465: system.cpu.iew.lsq.thread0: SQ size: 33, #stores occupied: 0





[trhackett@tetracosa gem5]$ ./build/X86/gem5.debug --debug-flags=ToyLSQUnit --outdir=project/results/dump configs/example/se.py --cmd=cs251a-microbench/merge --cpu-type=DerivO3CPU --cpu-clock=2.3GHz --caches --l2cache > out
warn: DRAM device capacity (8192 Mbytes) does not match the address range assigned (512 Mbytes)
0: system.remote_gdb: listening for remote gdb on port 7001
info: Entering event queue @ 0.  Starting simulation...
panic: Tried to read unmapped address 0x7ffe4e0c98dc.
PC: 0x7ffff7df2e5a, Instr:   MOVSXD_R_M : ld   t1d, DS:[4*rdx + rcx]
Memory Usage: 799100 KBytes
Program aborted at tick 3192465
--- BEGIN LIBC BACKTRACE ---
./build/X86/gem5.debug(_Z15print_backtracev+0x23)[0x1cd4485]
./build/X86/gem5.debug(_Z12abortHandleri+0x5f)[0x1cdc1c3]
/lib64/libpthread.so.0(+0xf5d0)[0x7f1e712175d0]
/lib64/libc.so.6(gsignal+0x37)[0x7f1e6fa61207]
/lib64/libc.so.6(abort+0x148)[0x7f1e6fa628f8]
./build/X86/gem5.debug(_ZN10SatCounterC1Ev+0x0)[0xd2c820]
./build/X86/gem5.debug(_ZN6X86ISA9PageFault6invokeEP13ThreadContextRK14RefCountingPtrI10StaticInstE+0x3a3)[0xe30003]
./build/X86/gem5.debug(_ZN9FullO3CPUI9O3CPUImplE4trapERKSt10shared_ptrI9FaultBaseEsRK14RefCountingPtrI10StaticInstE+0x61)[0x1a8ea65]
./build/X86/gem5.debug(_ZN13DefaultCommitI9O3CPUImplE10commitHeadER14RefCountingPtrI13BaseO3DynInstIS0_EEj+0x864)[0x1a7d98e]
./build/X86/gem5.debug(_ZN13DefaultCommitI9O3CPUImplE11commitInstsEv+0x3bd)[0x1a7c753]
./build/X86/gem5.debug(_ZN13DefaultCommitI9O3CPUImplE6commitEv+0xa1e)[0x1a7abc8]
./build/X86/gem5.debug(_ZN13DefaultCommitI9O3CPUImplE4tickEv+0x24a)[0x1a79bfe]
./build/X86/gem5.debug(_ZN9FullO3CPUI9O3CPUImplE4tickEv+0x13a)[0x1a8c4c6]
./build/X86/gem5.debug(_ZZN9FullO3CPUI9O3CPUImplEC1EP16DerivO3CPUParamsENKUlvE_clEv+0x1b)[0x1a87435]
./build/X86/gem5.debug(_ZNSt17_Function_handlerIFvvEZN9FullO3CPUI9O3CPUImplEC1EP16DerivO3CPUParamsEUlvE_E9_M_invokeERKSt9_Any_data+0x20)[0x1a94f6f]
./build/X86/gem5.debug(_ZNKSt8functionIFvvEEclEv+0x32)[0xd5cf1e]
./build/X86/gem5.debug(_ZN20EventFunctionWrapper7processEv+0x1c)[0xd57e18]
./build/X86/gem5.debug(_ZN10EventQueue10serviceOneEv+0xda)[0x1cd9880]
./build/X86/gem5.debug(_Z9doSimLoopP10EventQueue+0x1eb)[0x1ce1b25]
./build/X86/gem5.debug(_Z8simulatem+0x2fa)[0x1ce177e]
./build/X86/gem5.debug[0x1bdcf28]
./build/X86/gem5.debug[0x1bdb403]
./build/X86/gem5.debug[0x1bd7a4c]
./build/X86/gem5.debug[0x1bd7aa1]
./build/X86/gem5.debug[0x14c305e]
/lib64/libpython2.7.so.1.0(PyEval_EvalFrameEx+0x730a)[0x7f1e70b1a20a]
/lib64/libpython2.7.so.1.0(PyEval_EvalCodeEx+0x7ed)[0x7f1e70b1c03d]
/lib64/libpython2.7.so.1.0(PyEval_EvalFrameEx+0x663c)[0x7f1e70b1953c]
/lib64/libpython2.7.so.1.0(PyEval_EvalCodeEx+0x7ed)[0x7f1e70b1c03d]
/lib64/libpython2.7.so.1.0(PyEval_EvalFrameEx+0x663c)[0x7f1e70b1953c]
/lib64/libpython2.7.so.1.0(PyEval_EvalCodeEx+0x7ed)[0x7f1e70b1c03d]
/lib64/libpython2.7.so.1.0(PyEval_EvalFrameEx+0x663c)[0x7f1e70b1953c]
--- END LIBC BACKTRACE ---
Aborted
